

        *** GPGPU-Sim Simulator Version 4.0.0  [build gpgpu-sim_git-commit-_modified_0.0] ***


GPGPU-Sim PTX: simulation mode 0 (can change with PTX_SIM_MODE_FUNC environment variable:
               1=functional simulation only, 0=detailed performance simulator)
GPGPU-Sim PTX: overriding embedded ptx with ptx file (PTX_SIM_USE_PTX_FILE is set)
GPGPU-Sim: Configuration options:

-save_embedded_ptx                      0 # saves ptx files embedded in binary as <n>.ptx
-keep                                   0 # keep intermediate files created by GPGPU-Sim when interfacing with external programs
-gpgpu_ptx_save_converted_ptxplus                    0 # Saved converted ptxplus to a file
-gpgpu_occupancy_sm_number                   70 # The SM number to pass to ptxas when getting register usage for computing GPU occupancy. This parameter is required in the config.
-ptx_opcode_latency_int      4,13,4,5,145,21 # Opcode latencies for integers <ADD,MAX,MUL,MAD,DIV,SHFL>Default 1,1,19,25,145,32
-ptx_opcode_latency_fp          4,13,4,5,39 # Opcode latencies for single precision floating points <ADD,MAX,MUL,MAD,DIV>Default 1,1,1,1,30
-ptx_opcode_latency_dp         8,19,8,8,330 # Opcode latencies for double precision floating points <ADD,MAX,MUL,MAD,DIV>Default 8,8,8,8,335
-ptx_opcode_latency_sfu                  100 # Opcode latencies for SFU instructionsDefault 8
-ptx_opcode_latency_tesnor                   64 # Opcode latencies for Tensor instructionsDefault 64
-ptx_opcode_initiation_int          2,2,2,2,8,4 # Opcode initiation intervals for integers <ADD,MAX,MUL,MAD,DIV,SHFL>Default 1,1,4,4,32,4
-ptx_opcode_initiation_fp            2,2,2,2,4 # Opcode initiation intervals for single precision floating points <ADD,MAX,MUL,MAD,DIV>Default 1,1,1,1,5
-ptx_opcode_initiation_dp          4,4,4,4,130 # Opcode initiation intervals for double precision floating points <ADD,MAX,MUL,MAD,DIV>Default 8,8,8,8,130
-ptx_opcode_initiation_sfu                    8 # Opcode initiation intervals for sfu instructionsDefault 8
-ptx_opcode_initiation_tensor                   64 # Opcode initiation intervals for tensor instructionsDefault 64
-cdp_latency         7200,8000,100,12000,1600 # CDP API latency <cudaStreamCreateWithFlags, cudaGetParameterBufferV2_init_perWarp, cudaGetParameterBufferV2_perKernel, cudaLaunchDeviceV2_init_perWarp, cudaLaunchDevicV2_perKernel>Default 7200,8000,100,12000,1600
-network_mode                           2 # Interconnection network mode
-inter_config_file                   mesh # Interconnection network config file
-icnt_in_buffer_limit                  512 # in_buffer_limit
-icnt_out_buffer_limit                  512 # out_buffer_limit
-icnt_subnets                           2 # subnets
-icnt_arbiter_algo                      1 # arbiter_algo
-icnt_verbose                           0 # inct_verbose
-icnt_grant_cycles                      1 # grant_cycles
-gpgpu_ptx_use_cuobjdump                    1 # Use cuobjdump to extract ptx and sass from binaries
-gpgpu_experimental_lib_support                    0 # Try to extract code from cuda libraries [Broken because of unknown cudaGetExportTable]
-checkpoint_option                      0 #  checkpointing flag (0 = no checkpoint)
-checkpoint_kernel                      1 #  checkpointing during execution of which kernel (1- 1st kernel)
-checkpoint_CTA                         0 #  checkpointing after # of CTA (< less than total CTA)
-resume_option                          0 #  resume flag (0 = no resume)
-resume_kernel                          0 #  Resume from which kernel (1= 1st kernel)
-resume_CTA                             0 #  resume from which CTA 
-checkpoint_CTA_t                       0 #  resume from which CTA 
-checkpoint_insn_Y                      0 #  resume from which CTA 
-gpgpu_ptx_convert_to_ptxplus                    0 # Convert SASS (native ISA) to ptxplus and run ptxplus
-gpgpu_ptx_force_max_capability                   70 # Force maximum compute capability
-gpgpu_ptx_inst_debug_to_file                    0 # Dump executed instructions' debug information to file
-gpgpu_ptx_inst_debug_file       inst_debug.txt # Executed instructions' debug output file
-gpgpu_ptx_inst_debug_thread_uid                    1 # Thread UID for executed instructions' debug output
-gpgpu_n_mem_for_l2wb_pcommit                   32 # number of memory modules (e.g. memory controllers) in gpu
-gpgpu_n_sub_partition_per_mchannel_for_l2wb_pcommit                    2 # number of memory subpartition in each memory module
-gpgpu_dl2_bsize_for_l2wb_pcommit                  128 # default 128 bytes
-gpgpu_simd_model                       1 # 1 = post-dominator
-gpgpu_shader_core_pipeline              2048:32 # shader core pipeline config, i.e., {<nthread>:<warpsize>}
-gpgpu_tex_cache:l1  N:4:128:256,L:R:m:N:L,T:512:8,128:2 # per-shader L1 texture cache  (READ-ONLY) config  {<nsets>:<bsize>:<assoc>,<rep>:<wr>:<alloc>:<wr_alloc>,<mshr>:<N>:<merge>,<mq>:<rf>}
-gpgpu_const_cache:l1 N:128:64:8,L:R:f:N:L,S:2:64,4 # per-shader L1 constant memory cache  (READ-ONLY) config  {<nsets>:<bsize>:<assoc>,<rep>:<wr>:<alloc>:<wr_alloc>,<mshr>:<N>:<merge>,<mq>} 
-gpgpu_cache:il1     N:64:128:16,L:R:f:N:L,S:2:48,4 # shader L1 instruction cache config  {<nsets>:<bsize>:<assoc>,<rep>:<wr>:<alloc>:<wr_alloc>,<mshr>:<N>:<merge>,<mq>} 
-gpgpu_cache:dl1     S:1:128:256,L:L:s:N:L,A:256:8,16:0,32 # per-shader L1 data cache config  {<nsets>:<bsize>:<assoc>,<rep>:<wr>:<alloc>:<wr_alloc>,<mshr>:<N>:<merge>,<mq> | none}
-gpgpu_l1_banks                         4 # The number of L1 cache banks
-gpgpu_l1_banks_byte_interleaving                   32 # l1 banks byte interleaving granularity
-gpgpu_l1_banks_hashing_function                    0 # l1 banks hashing function
-gpgpu_l1_latency                      20 # L1 Hit Latency
-gpgpu_smem_latency                    20 # smem Latency
-gpgpu_cache:dl1PrefL1                 none # per-shader L1 data cache config  {<nsets>:<bsize>:<assoc>,<rep>:<wr>:<alloc>:<wr_alloc>,<mshr>:<N>:<merge>,<mq> | none}
-gpgpu_cache:dl1PrefShared                 none # per-shader L1 data cache config  {<nsets>:<bsize>:<assoc>,<rep>:<wr>:<alloc>:<wr_alloc>,<mshr>:<N>:<merge>,<mq> | none}
-gpgpu_gmem_skip_L1D                    0 # global memory access skip L1D cache (implements -Xptxas -dlcm=cg, default=no skip)
-gpgpu_perfect_mem                      0 # enable perfect memory mode (no cache miss)
-n_regfile_gating_group                    4 # group of lanes that should be read/written together)
-gpgpu_clock_gated_reg_file                    0 # enable clock gated reg file for power calculations
-gpgpu_clock_gated_lanes                    0 # enable clock gated lanes for power calculations
-gpgpu_shader_registers                65536 # Number of registers per shader core. Limits number of concurrent CTAs. (default 8192)
-gpgpu_registers_per_block                65536 # Maximum number of registers per CTA. (default 8192)
-gpgpu_ignore_resources_limitation                    0 # gpgpu_ignore_resources_limitation (default 0)
-gpgpu_shader_cta                      32 # Maximum number of concurrent CTAs in shader (default 8)
-gpgpu_num_cta_barriers                   16 # Maximum number of named barriers per CTA (default 16)
-gpgpu_n_clusters                      80 # number of processing clusters
-gpgpu_n_cores_per_cluster                    1 # number of simd cores per cluster
-gpgpu_n_cluster_ejection_buffer_size                   32 # number of packets in ejection buffer
-gpgpu_n_ldst_response_buffer_size                    2 # number of response packets in ld/st unit ejection buffer
-gpgpu_shmem_per_block                65536 # Size of shared memory per thread block or CTA (default 48kB)
-gpgpu_shmem_size                   98304 # Size of shared memory per shader core (default 16kB)
-gpgpu_adaptive_cache_config            536870913 # adaptive_cache_config
-gpgpu_shmem_sizeDefault                98304 # Size of shared memory per shader core (default 16kB)
-gpgpu_shmem_size_PrefL1                16384 # Size of shared memory per shader core (default 16kB)
-gpgpu_shmem_size_PrefShared                16384 # Size of shared memory per shader core (default 16kB)
-gpgpu_shmem_num_banks                   32 # Number of banks in the shared memory in each shader core (default 16)
-gpgpu_shmem_limited_broadcast                    0 # Limit shared memory to do one broadcast per cycle (default on)
-gpgpu_shmem_warp_parts                    1 # Number of portions a warp is divided into for shared memory bank conflict check 
-gpgpu_mem_unit_ports                    1 # The number of memory transactions allowed per core cycle
-gpgpu_shmem_warp_parts                    1 # Number of portions a warp is divided into for shared memory bank conflict check 
-gpgpu_warpdistro_shader                   -1 # Specify which shader core to collect the warp size distribution from
-gpgpu_warp_issue_shader                    0 # Specify which shader core to collect the warp issue distribution from
-gpgpu_local_mem_map                    1 # Mapping from local memory space address to simulated GPU physical address space (default = enabled)
-gpgpu_num_reg_banks                   16 # Number of register banks (default = 8)
-gpgpu_reg_bank_use_warp_id                    0 # Use warp ID in mapping registers to banks (default = off)
-gpgpu_sub_core_model                    1 # Sub Core Volta/Pascal model (default = off)
-gpgpu_enable_specialized_operand_collector                    0 # enable_specialized_operand_collector
-gpgpu_operand_collector_num_units_sp                    4 # number of collector units (default = 4)
-gpgpu_operand_collector_num_units_dp                    0 # number of collector units (default = 0)
-gpgpu_operand_collector_num_units_sfu                    4 # number of collector units (default = 4)
-gpgpu_operand_collector_num_units_int                    0 # number of collector units (default = 0)
-gpgpu_operand_collector_num_units_tensor_core                    4 # number of collector units (default = 4)
-gpgpu_operand_collector_num_units_mem                    2 # number of collector units (default = 2)
-gpgpu_operand_collector_num_units_gen                    8 # number of collector units (default = 0)
-gpgpu_operand_collector_num_in_ports_sp                    1 # number of collector unit in ports (default = 1)
-gpgpu_operand_collector_num_in_ports_dp                    0 # number of collector unit in ports (default = 0)
-gpgpu_operand_collector_num_in_ports_sfu                    1 # number of collector unit in ports (default = 1)
-gpgpu_operand_collector_num_in_ports_int                    0 # number of collector unit in ports (default = 0)
-gpgpu_operand_collector_num_in_ports_tensor_core                    1 # number of collector unit in ports (default = 1)
-gpgpu_operand_collector_num_in_ports_mem                    1 # number of collector unit in ports (default = 1)
-gpgpu_operand_collector_num_in_ports_gen                    8 # number of collector unit in ports (default = 0)
-gpgpu_operand_collector_num_out_ports_sp                    1 # number of collector unit in ports (default = 1)
-gpgpu_operand_collector_num_out_ports_dp                    0 # number of collector unit in ports (default = 0)
-gpgpu_operand_collector_num_out_ports_sfu                    1 # number of collector unit in ports (default = 1)
-gpgpu_operand_collector_num_out_ports_int                    0 # number of collector unit in ports (default = 0)
-gpgpu_operand_collector_num_out_ports_tensor_core                    1 # number of collector unit in ports (default = 1)
-gpgpu_operand_collector_num_out_ports_mem                    1 # number of collector unit in ports (default = 1)
-gpgpu_operand_collector_num_out_ports_gen                    8 # number of collector unit in ports (default = 0)
-gpgpu_coalesce_arch                   60 # Coalescing arch (GT200 = 13, Fermi = 20)
-gpgpu_num_sched_per_core                    4 # Number of warp schedulers per core
-gpgpu_max_insn_issue_per_warp                    1 # Max number of instructions that can be issued per warp in one cycle by scheduler (either 1 or 2)
-gpgpu_dual_issue_diff_exec_units                    1 # should dual issue use two different execution unit resources (Default = 1)
-gpgpu_simt_core_sim_order                    1 # Select the simulation order of cores in a cluster (0=Fix, 1=Round-Robin)
-gpgpu_pipeline_widths 4,4,4,4,4,4,4,4,4,4,8,4,4 # Pipeline widths ID_OC_SP,ID_OC_DP,ID_OC_INT,ID_OC_SFU,ID_OC_MEM,OC_EX_SP,OC_EX_DP,OC_EX_INT,OC_EX_SFU,OC_EX_MEM,EX_WB,ID_OC_TENSOR_CORE,OC_EX_TENSOR_CORE
-gpgpu_tensor_core_avail                    1 # Tensor Core Available (default=0)
-gpgpu_num_sp_units                     4 # Number of SP units (default=1)
-gpgpu_num_dp_units                     4 # Number of DP units (default=0)
-gpgpu_num_int_units                    4 # Number of INT units (default=0)
-gpgpu_num_sfu_units                    4 # Number of SF units (default=1)
-gpgpu_num_tensor_core_units                    4 # Number of tensor_core units (default=1)
-gpgpu_num_mem_units                    1 # Number if ldst units (default=1) WARNING: not hooked up to anything
-gpgpu_scheduler                      gto # Scheduler configuration: < lrr | gto | two_level_active > If two_level_active:<num_active_warps>:<inner_prioritization>:<outer_prioritization>For complete list of prioritization values see shader.h enum scheduler_prioritization_typeDefault: gto
-gpgpu_concurrent_kernel_sm                    0 # Support concurrent kernels on a SM (default = disabled)
-gpgpu_perfect_inst_const_cache                    1 # perfect inst and const cache mode, so all inst and const hits in the cache(default = disabled)
-gpgpu_inst_fetch_throughput                    4 # the number of fetched intruction per warp each cycle
-gpgpu_reg_file_port_throughput                    2 # the number ports of the register file
-specialized_unit_1         0,4,4,4,4,BRA # specialized unit config {<enabled>,<num_units>:<latency>:<initiation>,<ID_OC_SPEC>:<OC_EX_SPEC>,<NAME>}
-specialized_unit_2         0,4,4,4,4,BRA # specialized unit config {<enabled>,<num_units>:<latency>:<initiation>,<ID_OC_SPEC>:<OC_EX_SPEC>,<NAME>}
-specialized_unit_3         0,4,4,4,4,BRA # specialized unit config {<enabled>,<num_units>:<latency>:<initiation>,<ID_OC_SPEC>:<OC_EX_SPEC>,<NAME>}
-specialized_unit_4         0,4,4,4,4,BRA # specialized unit config {<enabled>,<num_units>:<latency>:<initiation>,<ID_OC_SPEC>:<OC_EX_SPEC>,<NAME>}
-specialized_unit_5         0,4,4,4,4,BRA # specialized unit config {<enabled>,<num_units>:<latency>:<initiation>,<ID_OC_SPEC>:<OC_EX_SPEC>,<NAME>}
-specialized_unit_6         0,4,4,4,4,BRA # specialized unit config {<enabled>,<num_units>:<latency>:<initiation>,<ID_OC_SPEC>:<OC_EX_SPEC>,<NAME>}
-specialized_unit_7         0,4,4,4,4,BRA # specialized unit config {<enabled>,<num_units>:<latency>:<initiation>,<ID_OC_SPEC>:<OC_EX_SPEC>,<NAME>}
-specialized_unit_8         0,4,4,4,4,BRA # specialized unit config {<enabled>,<num_units>:<latency>:<initiation>,<ID_OC_SPEC>:<OC_EX_SPEC>,<NAME>}
-gpgpu_perf_sim_memcpy                    1 # Fill the L2 cache on memcpy
-gpgpu_simple_dram_model                    0 # simple_dram_model with fixed latency and BW
-gpgpu_dram_scheduler                    1 # 0 = fifo, 1 = FR-FCFS (defaul)
-gpgpu_dram_partition_queues          64:64:64:64 # i2$:$2d:d2$:$2i
-l2_ideal                               0 # Use a ideal L2 cache that always hit
-gpgpu_cache:dl2     S:32:128:24,L:B:m:L:P,A:192:4,32:0,32 # unified banked L2 data cache config  {<nsets>:<bsize>:<assoc>,<rep>:<wr>:<alloc>:<wr_alloc>,<mshr>:<N>:<merge>,<mq>}
-gpgpu_cache:dl2_texture_only                    0 # L2 cache used for texture only
-gpgpu_n_mem                           32 # number of memory modules (e.g. memory controllers) in gpu
-gpgpu_n_sub_partition_per_mchannel                    2 # number of memory subpartition in each memory module
-gpgpu_n_mem_per_ctrlr                    1 # number of memory chips per memory controller
-gpgpu_memlatency_stat                   14 # track and display latency statistics 0x2 enables MC, 0x4 enables queue logs
-gpgpu_frfcfs_dram_sched_queue_size                   64 # 0 = unlimited (default); # entries per chip
-gpgpu_dram_return_queue_size                  192 # 0 = unlimited (default); # entries per chip
-gpgpu_dram_buswidth                   16 # default = 4 bytes (8 bytes per cycle at DDR)
-gpgpu_dram_burst_length                    2 # Burst length of each DRAM request (default = 4 data bus cycle)
-dram_data_command_freq_ratio                    2 # Frequency ratio between DRAM data bus and command bus (default = 2 times, i.e. DDR)
-gpgpu_dram_timing_opt nbk=16:CCD=1:RRD=3:RCD=12:RAS=28:RP=12:RC=40: CL=12:WL=2:CDLR=3:WR=10:nbkgrp=4:CCDL=2:RTPL=3 # DRAM timing parameters = {nbk:tCCD:tRRD:tRCD:tRAS:tRP:tRC:CL:WL:tCDLR:tWR:nbkgrp:tCCDL:tRTPL}
-gpgpu_l2_rop_latency                  160 # ROP queue latency (default 85)
-dram_latency                         200 # DRAM latency (default 30)
-dram_write_latency                   600 # DRAM write latency (default 100)
-dram_dual_bus_interface                    1 # dual_bus_interface (default = 0) 
-dram_bnk_indexing_policy                    0 # dram_bnk_indexing_policy (0 = normal indexing, 1 = Xoring with the higher bits) (Default = 0)
-dram_bnkgrp_indexing_policy                    1 # dram_bnkgrp_indexing_policy (0 = take higher bits, 1 = take lower bits) (Default = 0)
-dram_seperate_write_queue_enable                    0 # Seperate_Write_Queue_Enable
-dram_write_queue_size             32:28:16 # Write_Queue_Size
-dram_elimnate_rw_turnaround                    0 # elimnate_rw_turnaround i.e set tWTR and tRTW = 0
-icnt_flit_size                        40 # icnt_flit_size
-gpgpu_mem_addr_mapping dramid@8;00000000.00000000.00000000.00000000.0000RRRR.RRRRRRRR.RBBBCCCB.CCCSSSSS # mapping memory address to dram model {dramid@<start bit>;<memory address map>}
-gpgpu_mem_addr_test                    0 # run sweep test to check address mapping for aliased address
-gpgpu_mem_address_mask                    1 # 0 = old addressing mask, 1 = new addressing mask, 2 = new add. mask + flipped bank sel and chip sel bits
-gpgpu_memory_partition_indexing                    0 # 0 = no indexing, 1 = bitwise xoring, 2 = IPoly, 3 = custom indexing
-gpuwattch_xml_file         gpuwattch.xml # GPUWattch XML file
-power_simulation_enabled                    0 # Turn on power simulator (1=On, 0=Off)
-power_per_cycle_dump                    0 # Dump detailed power output each cycle
-power_trace_enabled                    0 # produce a file for the power trace (1=On, 0=Off)
-power_trace_zlevel                     6 # Compression level of the power trace output log (0=no comp, 9=highest)
-steady_power_levels_enabled                    0 # produce a file for the steady power levels (1=On, 0=Off)
-steady_state_definition                  8:4 # allowed deviation:number of samples
-gpgpu_max_cycle                        0 # terminates gpu simulation early (0 = no limit)
-gpgpu_max_insn                         0 # terminates gpu simulation early (0 = no limit)
-gpgpu_max_cta                          0 # terminates gpu simulation early (0 = no limit)
-gpgpu_max_completed_cta                    0 # terminates gpu simulation early (0 = no limit)
-gpgpu_runtime_stat                   500 # display runtime statistics such as dram utilization {<freq>:<flag>}
-liveness_message_freq                    1 # Minimum number of seconds between simulation liveness messages (0 = always print)
-gpgpu_compute_capability_major                    7 # Major compute capability version number
-gpgpu_compute_capability_minor                    0 # Minor compute capability version number
-gpgpu_flush_l1_cache                    1 # Flush L1 cache at the end of each kernel call
-gpgpu_flush_l2_cache                    0 # Flush L2 cache at the end of each kernel call
-gpgpu_deadlock_detect                    1 # Stop the simulation at deadlock (1=on (default), 0=off)
-gpgpu_ptx_instruction_classification                    0 # if enabled will classify ptx instruction types per kernel (Max 255 kernels now)
-gpgpu_ptx_sim_mode                     0 # Select between Performance (default) or Functional simulation (1)
-gpgpu_clock_domains 1132.0:1132.0:1132.0:850.0 # Clock Domain Frequencies in MhZ {<Core Clock>:<ICNT Clock>:<L2 Clock>:<DRAM Clock>}
-gpgpu_max_concurrent_kernel                    8 # maximum kernels that can run concurrently on GPU
-gpgpu_cflog_interval                    0 # Interval between each snapshot in control flow logger
-visualizer_enabled               d741e7682a77c833cedfb5121342e14a  /home/pli11/Desktop/re_test/ProgPow/ethash_calculate_dag_item/undo_c_wt/main
Extracting PTX file and ptxas options    1: main.1.sm_70.ptx -arch=sm_70
      0 # Turn on visualizer output (1=On, 0=Off)
-visualizer_outputfile                 NULL # Specifies the output log file for visualizer
-visualizer_zlevel                      6 # Compression level of the visualizer output log (0=no comp, 9=highest)
-gpgpu_stack_size_limit                 1024 # GPU thread stack size
-gpgpu_heap_size_limit              8388608 # GPU malloc heap size 
-gpgpu_runtime_sync_depth_limit                    2 # GPU device runtime synchronize depth
-gpgpu_runtime_pending_launch_count_limit                 2048 # GPU device runtime pending launch count
-trace_enabled                          0 # Turn on traces
-trace_components                    none # comma seperated list of traces to enable. Complete list found in trace_streams.tup. Default none
-trace_sampling_core                    0 # The core which is printed using CORE_DPRINTF. Default 0
-trace_sampling_memory_partition                   -1 # The memory partition which is printed using MEMPART_DPRINTF. Default -1 (i.e. all)
-enable_ptx_file_line_stats                    1 # Turn on PTX source line statistic profiling. (1 = On)
-ptx_line_stats_filename gpgpu_inst_stats.txt # Output file for PTX source line statistics.
-gpgpu_kernel_launch_latency                 5000 # Kernel launch latency in cycles. Default: 0
-gpgpu_cdp_enabled                      0 # Turn on CDP
-gpgpu_TB_launch_latency                    0 # thread block launch latency in cycles. Default: 0
DRAM Timing Options:
nbk                                    16 # number of banks
CCD                                     1 # column to column delay
RRD                                     3 # minimal delay between activation of rows in different banks
RCD                                    12 # row to column delay
RAS                                    28 # time needed to activate row
RP                                     12 # time needed to precharge (deactivate) row
RC                                     40 # row cycle time
CDLR                                    3 # switching from write to read (changes tWTR)
WR                                     10 # last data-in to row precharge
CL                                     12 # CAS latency
WL                                      2 # Write latency
nbkgrp                                  4 # number of bank groups
CCDL                                    2 # column to column delay between accesses to different bank groups
RTPL                                    3 # read to precharge delay between accesses to different bank groups
Total number of memory sub partition = 64
addr_dec_mask[CHIP]  = 0000000000001f00 	high:13 low:8
addr_dec_mask[BK]    = 00000000000e2000 	high:20 low:13
addr_dec_mask[ROW]   = 00000001fff00000 	high:33 low:20
addr_dec_mask[COL]   = 000000000001c0ff 	high:17 low:0
addr_dec_mask[BURST] = 000000000000001f 	high:5 low:0
sub_partition_id_mask = 0000000000002000
GPGPU-Sim uArch: clock freqs: 1132000000.000000:1132000000.000000:1132000000.000000:850000000.000000
GPGPU-Sim uArch: clock periods: 0.00000000088339222615:0.00000000088339222615:0.00000000088339222615:0.00000000117647058824
*** Initializing Memory Statistics ***
GPGPU-Sim uArch: performance model initialization complete.
self exe links to: /home/pli11/Desktop/re_test/ProgPow/ethash_calculate_dag_item/undo_c_wt/main
self exe links to: /home/pli11/Desktop/re_test/ProgPow/ethash_calculate_dag_item/undo_c_wt/main
10.1
GPGPU-Sim PTX: __cudaRegisterFatBinary, fat_cubin_handle = 1, filename=default
self exe links to: /home/pli11/Desktop/re_test/ProgPow/ethash_calculate_dag_item/undo_c_wt/main
Running md5sum using "md5sum /home/pli11/Desktop/re_test/ProgPow/ethash_calculate_dag_item/undo_c_wt/main "
self exe links to: /home/pli11/Desktop/re_test/ProgPow/ethash_calculate_dag_item/undo_c_wt/main
Extracting specific PTX file named main.1.sm_70.ptx 
GPGPU-Sim PTX: __cudaRegisterFunction _Z25ethash_calculate_dag_itemjP8hash64_tmS0_j : hostFun 0x0x4123e6, fat_cubin_handle = 1
GPGPU-Sim PTX: Parsing main.1.sm_70.ptx
GPGPU-Sim PTX: allocating constant region for "keccakf_rndc" from 0x100 to 0x1c0 (global memory space) 1
GPGPU-Sim PTX: allocating global region for "NVM_log" from 0x200 to 0x4000200 (global memory space)
GPGPU-Sim PTX: allocating global region for "NVM_flag" from 0x4000200 to 0x4400200 (global memory space)
GPGPU-Sim PTX: instruction assembly for function '_Z25ethash_calculate_dag_itemjP8hash64_tmS0_j'...   done.
GPGPU-Sim PTX: finished parsing EMBEDDED .ptx file main.1.sm_70.ptx
GPGPU-Sim PTX: loading globals with explicit initializers... 
GPGPU-Sim PTX: finished loading globals (0 bytes total).
GPGPU-Sim PTX: loading constants with explicit initializers...  done.
GPGPU-Sim PTX: Loading PTXInfo from main.1.sm_70.ptx
GPGPU-Sim PTX: Binary info : gmem=71303168, cmem=192
GPGPU-Sim PTX: Kernel '_Z25ethash_calculate_dag_itemjP8hash64_tmS0_j' : regs=80, lmem=0, smem=0, cmem=388
GPGPU-Sim PTX: __cudaRegisterVar: hostVar = 0x41c4c0; deviceAddress = keccakf_rndc; deviceName = keccakf_rndc
GPGPU-Sim PTX: __cudaRegisterVar: Registering const memory space of 192 bytes
GPGPU-Sim PTX registering constant keccakf_rndc (192 bytes) to name mapping
GPGPU-Sim PTX: __cudaRegisterVar: hostVar = 0x6bf9c0; deviceAddress = NVM_log; deviceName = NVM_log
GPGPU-Sim PTX: __cudaRegisterVar: Registering const memory space of 67108864 bytes
GPGPU-Sim PTX registering global NVM_log hostVar to name mapping
GPGPU-Sim PTX: __cudaRegisterVar: hostVar = 0x46bf9c0; deviceAddress = NVM_flag; deviceName = NVM_flag
GPGPU-Sim PTX: __cudaRegisterVar: Registering const memory space of 4194304 bytes
GPGPU-Sim PTX registering global NVM_flag hostVar to name mapping
Set Device to current
Resetting device
Allocating light with size: 16907456
Generating mining buffers
GPGPU-Sim PTX: cudaStreamCreate
GPGPU-Sim PTX: cudaStreamCreate
Generating DAG for GPU #0 with dagBytes: 1082130304 gridSize: 4
fullRuns=16512
GPGPU-Sim PTX: Setting up arguments for 4 bytes starting at 0x7ffcdbdccecc..
GPGPU-Sim PTX: Setting up arguments for 8 bytes starting at 0x7ffcdbdccec0..
GPGPU-Sim PTX: Setting up arguments for 8 bytes starting at 0x7ffcdbdcceb8..
GPGPU-Sim PTX: Setting up arguments for 8 bytes starting at 0x7ffcdbdcceb0..
GPGPU-Sim PTX: Setting up arguments for 4 bytes starting at 0x7ffcdbdccec8..

GPGPU-Sim PTX: cudaLaunch for 0x0x4123e6 (mode=performance simulation) on stream 1
GPGPU-Sim PTX: finding reconvergence points for '_Z25ethash_calculate_dag_itemjP8hash64_tmS0_j'...
GPGPU-Sim PTX: Finding dominators for '_Z25ethash_calculate_dag_itemjP8hash64_tmS0_j'...
GPGPU-Sim PTX: Finding immediate dominators for '_Z25ethash_calculate_dag_itemjP8hash64_tmS0_j'...
GPGPU-Sim PTX: Finding postdominators for '_Z25ethash_calculate_dag_itemjP8hash64_tmS0_j'...
GPGPU-Sim PTX: Finding immediate postdominators for '_Z25ethash_calculate_dag_itemjP8hash64_tmS0_j'...
GPGPU-Sim PTX: pre-decoding instructions for '_Z25ethash_calculate_dag_itemjP8hash64_tmS0_j'...
GPGPU-Sim PTX: reconvergence points for _Z25ethash_calculate_dag_itemjP8hash64_tmS0_j...
GPGPU-Sim PTX:  1 (potential) branch divergence @  PC=0x088 (main.1.sm_70.ptx:48) @%p4102 bra BB0_2588;
GPGPU-Sim PTX:    immediate post dominator      @  PC=0x2bc68 (main.1.sm_70.ptx:26793) ret;
GPGPU-Sim PTX:  2 (potential) branch divergence @  PC=0x0a8 (main.1.sm_70.ptx:53) @%p4103 bra BB0_3;
GPGPU-Sim PTX:    immediate post dominator      @  PC=0x0e0 (main.1.sm_70.ptx:65) shl.b64 %rd6298, %rd7684, 6;
GPGPU-Sim PTX:  3 (potential) branch divergence @  PC=0x0b8 (main.1.sm_70.ptx:56) bra.uni BB0_4;
GPGPU-Sim PTX:    immediate post dominator      @  PC=0x0e0 (main.1.sm_70.ptx:65) shl.b64 %rd6298, %rd7684, 6;
GPGPU-Sim PTX:  4 (potential) branch divergence @  PC=0xa70 (main.1.sm_70.ptx:576) @%p4104 bra BB0_5;
GPGPU-Sim PTX:    immediate post dominator      @  PC=0xa78 (main.1.sm_70.ptx:578) mov.u32 %r24723, %tid.x;
GPGPU-Sim PTX:  5 (potential) branch divergence @  PC=0xb28 (main.1.sm_70.ptx:602) @%p4106 bra BB0_9;
GPGPU-Sim PTX:    immediate post dominator      @  PC=0xb90 (main.1.sm_70.ptx:618) shfl.sync.idx.b32 %r15|%p5, %r6069, %r6036, %r6066, %r6067;
GPGPU-Sim PTX:  6 (potential) branch divergence @  PC=0xbb0 (main.1.sm_70.ptx:622) @%p4106 bra BB0_11;
GPGPU-Sim PTX:    immediate post dominator      @  PC=0xc18 (main.1.sm_70.ptx:638) shfl.sync.idx.b32 %r19|%p9, %r6069, %r6046, %r6066, %r6067;
GPGPU-Sim PTX:  7 (potential) branch divergence @  PC=0xc38 (main.1.sm_70.ptx:642) @%p4106 bra BB0_13;
GPGPU-Sim PTX:    immediate post dominator      @  PC=0xca0 (main.1.sm_70.ptx:658) shfl.sync.idx.b32 %r23|%p13, %r6069, %r6037, %r6066, %r6067;
GPGPU-Sim PTX:  8 (potential) branch divergence @  PC=0xcc0 (main.1.sm_70.ptx:662) @%p4106 bra BB0_15;
GPGPU-Sim PTX:    immediate post dominator      @  PC=0xd28 (main.1.sm_70.ptx:678) add.s32 %r24750, %r24750, 1;
GPGPU-Sim PTX:  9 (potential) branch divergence @  PC=0xd38 (main.1.sm_70.ptx:680) @%p4110 bra BB0_7;
GPGPU-Sim PTX:    immediate post dominator      @  PC=0xd40 (main.1.sm_70.ptx:682) xor.b32 %r6132, %r6028, 1;
GPGPU-Sim PTX: 10 (potential) branch divergence @  PC=0xdc8 (main.1.sm_70.ptx:701) @%p4112 bra BB0_19;
GPGPU-Sim PTX:    immediate post dominator      @  PC=0xe30 (main.1.sm_70.ptx:717) shfl.sync.idx.b32 %r38|%p21, %r6141, %r6036, %r6066, %r6067;
GPGPU-Sim PTX: 11 (potential) branch divergence @  PC=0xe50 (main.1.sm_70.ptx:721) @%p4112 bra BB0_21;
GPGPU-Sim PTX:    immediate post dominator      @  PC=0xeb8 (main.1.sm_70.ptx:737) shfl.sync.idx.b32 %r42|%p25, %r6141, %r6046, %r6066, %r6067;
GPGPU-Sim PTX: 12 (potential) branch divergence @  PC=0xed8 (main.1.sm_70.ptx:741) @%p4112 bra BB0_23;
GPGPU-Sim PTX:    immediate post dominator      @  PC=0xf40 (main.1.sm_70.ptx:757) shfl.sync.idx.b32 %r46|%p29, %r6141, %r6037, %r6066, %r6067;
GPGPU-Sim PTX: 13 (potential) branch divergence @  PC=0xf60 (main.1.sm_70.ptx:761) @%p4112 bra BB0_25;
GPGPU-Sim PTX:    immediate post dominator      @  PC=0xfc8 (main.1.sm_70.ptx:777) add.s32 %r24751, %r24751, 1;
GPGPU-Sim PTX: 14 (potential) branch divergence @  PC=0xfd8 (main.1.sm_70.ptx:779) @%p4116 bra BB0_17;
GPGPU-Sim PTX:    immediate post dominator      @  PC=0xfe0 (main.1.sm_70.ptx:781) xor.b32 %r6204, %r6028, 2;
GPGPU-Sim PTX: 15 (potential) branch divergence @  PC=0x1068 (main.1.sm_70.ptx:800) @%p4118 bra BB0_29;
GPGPU-Sim PTX:    immediate post dominator      @  PC=0x10d0 (main.1.sm_70.ptx:816) shfl.sync.idx.b32 %r61|%p37, %r6213, %r6036, %r6066, %r6067;
GPGPU-Sim PTX: 16 (potential) branch divergence @  PC=0x10f0 (main.1.sm_70.ptx:820) @%p4118 bra BB0_31;
GPGPU-Sim PTX:    immediate post dominator      @  PC=0x1158 (main.1.sm_70.ptx:836) shfl.sync.idx.b32 %r65|%p41, %r6213, %r6046, %r6066, %r6067;
GPGPU-Sim PTX: 17 (potential) branch divergence @  PC=0x1178 (main.1.sm_70.ptx:840) @%p4118 bra BB0_33;
GPGPU-Sim PTX:    immediate post dominator      @  PC=0x11e0 (main.1.sm_70.ptx:856) shfl.sync.idx.b32 %r69|%p45, %r6213, %r6037, %r6066, %r6067;
GPGPU-Sim PTX: 18 (potential) branch divergence @  PC=0x1200 (main.1.sm_70.ptx:860) @%p4118 bra BB0_35;
GPGPU-Sim PTX:    immediate post dominator      @  PC=0x1268 (main.1.sm_70.ptx:876) add.s32 %r24752, %r24752, 1;
GPGPU-Sim PTX: 19 (potential) branch divergence @  PC=0x1278 (main.1.sm_70.ptx:878) @%p4122 bra BB0_27;
GPGPU-Sim PTX:    immediate post dominator      @  PC=0x1280 (main.1.sm_70.ptx:880) xor.b32 %r6276, %r6028, 3;
GPGPU-Sim PTX: 20 (potential) branch divergence @  PC=0x1308 (main.1.sm_70.ptx:899) @%p4124 bra BB0_39;
GPGPU-Sim PTX:    immediate post dominator      @  PC=0x1370 (main.1.sm_70.ptx:915) shfl.sync.idx.b32 %r84|%p53, %r6285, %r6036, %r6066, %r6067;
GPGPU-Sim PTX: 21 (potential) branch divergence @  PC=0x1390 (main.1.sm_70.ptx:919) @%p4124 bra BB0_41;
GPGPU-Sim PTX:    immediate post dominator      @  PC=0x13f8 (main.1.sm_70.ptx:935) shfl.sync.idx.b32 %r88|%p57, %r6285, %r6046, %r6066, %r6067;
GPGPU-Sim PTX: 22 (potential) branch divergence @  PC=0x1418 (main.1.sm_70.ptx:939) @%p4124 bra BB0_43;
GPGPU-Sim PTX:    immediate post dominator      @  PC=0x1480 (main.1.sm_70.ptx:955) shfl.sync.idx.b32 %r92|%p61, %r6285, %r6037, %r6066, %r6067;
GPGPU-Sim PTX: 23 (potential) branch divergence @  PC=0x14a0 (main.1.sm_70.ptx:959) @%p4124 bra BB0_45;
GPGPU-Sim PTX:    immediate post dominator      @  PC=0x1508 (main.1.sm_70.ptx:975) add.s32 %r24753, %r24753, 1;
GPGPU-Sim PTX: 24 (potential) branch divergence @  PC=0x1518 (main.1.sm_70.ptx:977) @%p4128 bra BB0_37;
GPGPU-Sim PTX:    immediate post dominator      @  PC=0x1520 (main.1.sm_70.ptx:979) xor.b32 %r6348, %r6028, 4;
GPGPU-Sim PTX: 25 (potential) branch divergence @  PC=0x15a8 (main.1.sm_70.ptx:998) @%p4130 bra BB0_49;
GPGPU-Sim PTX:    immediate post dominator      @  PC=0x1610 (main.1.sm_70.ptx:1014) shfl.sync.idx.b32 %r107|%p69, %r6357, %r6036, %r6066, %r6067;
GPGPU-Sim PTX: 26 (potential) branch divergence @  PC=0x1630 (main.1.sm_70.ptx:1018) @%p4130 bra BB0_51;
GPGPU-Sim PTX:    immediate post dominator      @  PC=0x1698 (main.1.sm_70.ptx:1034) shfl.sync.idx.b32 %r111|%p73, %r6357, %r6046, %r6066, %r6067;
GPGPU-Sim PTX: 27 (potential) branch divergence @  PC=0x16b8 (main.1.sm_70.ptx:1038) @%p4130 bra BB0_53;
GPGPU-Sim PTX:    immediate post dominator      @  PC=0x1720 (main.1.sm_70.ptx:1054) shfl.sync.idx.b32 %r115|%p77, %r6357, %r6037, %r6066, %r6067;
GPGPU-Sim PTX: 28 (potential) branch divergence @  PC=0x1740 (main.1.sm_70.ptx:1058) @%p4130 bra BB0_55;
GPGPU-Sim PTX:    immediate post dominator      @  PC=0x17a8 (main.1.sm_70.ptx:1074) add.s32 %r24754, %r24754, 1;
GPGPU-Sim PTX: 29 (potential) branch divergence @  PC=0x17b8 (main.1.sm_70.ptx:1076) @%p4134 bra BB0_47;
GPGPU-Sim PTX:    immediate post dominator      @  PC=0x17c0 (main.1.sm_70.ptx:1078) xor.b32 %r6420, %r6028, 5;
GPGPU-Sim PTX: 30 (potential) branch divergence @  PC=0x1848 (main.1.sm_70.ptx:1097) @%p4136 bra BB0_59;
GPGPU-Sim PTX:    immediate post dominator      @  PC=0x18b0 (main.1.sm_70.ptx:1113) shfl.sync.idx.b32 %r130|%p85, %r6429, %r6036, %r6066, %r6067;
GPGPU-Sim PTX: 31 (potential) branch divergence @  PC=0x18d0 (main.1.sm_70.ptx:1117) @%p4136 bra BB0_61;
GPGPU-Sim PTX:    immediate post dominator      @  PC=0x1938 (main.1.sm_70.ptx:1133) shfl.sync.idx.b32 %r134|%p89, %r6429, %r6046, %r6066, %r6067;
GPGPU-Sim PTX: 32 (potential) branch divergence @  PC=0x1958 (main.1.sm_70.ptx:1137) @%p4136 bra BB0_63;
GPGPU-Sim PTX:    immediate post dominator      @  PC=0x19c0 (main.1.sm_70.ptx:1153) shfl.sync.idx.b32 %r138|%p93, %r6429, %r6037, %r6066, %r6067;
GPGPU-Sim PTX: 33 (potential) branch divergence @  PC=0x19e0 (main.1.sm_70.ptx:1157) @%p4136 bra BB0_65;
GPGPU-Sim PTX:    immediate post dominator      @  PC=0x1a48 (main.1.sm_70.ptx:1173) add.s32 %r24755, %r24755, 1;
GPGPU-Sim PTX: 34 (potential) branch divergence @  PC=0x1a58 (main.1.sm_70.ptx:1175) @%p4140 bra BB0_57;
GPGPU-Sim PTX:    immediate post dominator      @  PC=0x1a60 (main.1.sm_70.ptx:1177) xor.b32 %r6492, %r6028, 6;
GPGPU-Sim PTX: 35 (potential) branch divergence @  PC=0x1ae8 (main.1.sm_70.ptx:1196) @%p4142 bra BB0_69;
GPGPU-Sim PTX:    immediate post dominator      @  PC=0x1b50 (main.1.sm_70.ptx:1212) shfl.sync.idx.b32 %r153|%p101, %r6501, %r6036, %r6066, %r6067;
GPGPU-Sim PTX: 36 (potential) branch divergence @  PC=0x1b70 (main.1.sm_70.ptx:1216) @%p4142 bra BB0_71;
GPGPU-Sim PTX:    immediate post dominator      @  PC=0x1bd8 (main.1.sm_70.ptx:1232) shfl.sync.idx.b32 %r157|%p105, %r6501, %r6046, %r6066, %r6067;
GPGPU-Sim PTX: 37 (potential) branch divergence @  PC=0x1bf8 (main.1.sm_70.ptx:1236) @%p4142 bra BB0_73;
GPGPU-Sim PTX:    immediate post dominator      @  PC=0x1c60 (main.1.sm_70.ptx:1252) shfl.sync.idx.b32 %r161|%p109, %r6501, %r6037, %r6066, %r6067;
GPGPU-Sim PTX: 38 (potential) branch divergence @  PC=0x1c80 (main.1.sm_70.ptx:1256) @%p4142 bra BB0_75;
GPGPU-Sim PTX:    immediate post dominator      @  PC=0x1ce8 (main.1.sm_70.ptx:1272) add.s32 %r24756, %r24756, 1;
GPGPU-Sim PTX: 39 (potential) branch divergence @  PC=0x1cf8 (main.1.sm_70.ptx:1274) @%p4146 bra BB0_67;
GPGPU-Sim PTX:    immediate post dominator      @  PC=0x1d00 (main.1.sm_70.ptx:1276) xor.b32 %r6564, %r6028, 7;
GPGPU-Sim PTX: 40 (potential) branch divergence @  PC=0x1d88 (main.1.sm_70.ptx:1295) @%p4148 bra BB0_79;
GPGPU-Sim PTX:    immediate post dominator      @  PC=0x1df0 (main.1.sm_70.ptx:1311) shfl.sync.idx.b32 %r176|%p117, %r6573, %r6036, %r6066, %r6067;
GPGPU-Sim PTX: 41 (potential) branch divergence @  PC=0x1e10 (main.1.sm_70.ptx:1315) @%p4148 bra BB0_81;
GPGPU-Sim PTX:    immediate post dominator      @  PC=0x1e78 (main.1.sm_70.ptx:1331) shfl.sync.idx.b32 %r180|%p121, %r6573, %r6046, %r6066, %r6067;
GPGPU-Sim PTX: 42 (potential) branch divergence @  PC=0x1e98 (main.1.sm_70.ptx:1335) @%p4148 bra BB0_83;
GPGPU-Sim PTX:    immediate post dominator      @  PC=0x1f00 (main.1.sm_70.ptx:1351) shfl.sync.idx.b32 %r184|%p125, %r6573, %r6037, %r6066, %r6067;
GPGPU-Sim PTX: 43 (potential) branch divergence @  PC=0x1f20 (main.1.sm_70.ptx:1355) @%p4148 bra BB0_85;
GPGPU-Sim PTX:    immediate post dominator      @  PC=0x1f88 (main.1.sm_70.ptx:1371) add.s32 %r24757, %r24757, 1;
GPGPU-Sim PTX: 44 (potential) branch divergence @  PC=0x1f98 (main.1.sm_70.ptx:1373) @%p4152 bra BB0_77;
GPGPU-Sim PTX:    immediate post dominator      @  PC=0x1fa0 (main.1.sm_70.ptx:1375) xor.b32 %r6636, %r6028, 8;
GPGPU-Sim PTX: 45 (potential) branch divergence @  PC=0x2028 (main.1.sm_70.ptx:1394) @%p4154 bra BB0_89;
GPGPU-Sim PTX:    immediate post dominator      @  PC=0x2090 (main.1.sm_70.ptx:1410) shfl.sync.idx.b32 %r199|%p133, %r6645, %r6036, %r6066, %r6067;
GPGPU-Sim PTX: 46 (potential) branch divergence @  PC=0x20b0 (main.1.sm_70.ptx:1414) @%p4154 bra BB0_91;
GPGPU-Sim PTX:    immediate post dominator      @  PC=0x2118 (main.1.sm_70.ptx:1430) shfl.sync.idx.b32 %r203|%p137, %r6645, %r6046, %r6066, %r6067;
GPGPU-Sim PTX: 47 (potential) branch divergence @  PC=0x2138 (main.1.sm_70.ptx:1434) @%p4154 bra BB0_93;
GPGPU-Sim PTX:    immediate post dominator      @  PC=0x21a0 (main.1.sm_70.ptx:1450) shfl.sync.idx.b32 %r207|%p141, %r6645, %r6037, %r6066, %r6067;
GPGPU-Sim PTX: 48 (potential) branch divergence @  PC=0x21c0 (main.1.sm_70.ptx:1454) @%p4154 bra BB0_95;
GPGPU-Sim PTX:    immediate post dominator      @  PC=0x2228 (main.1.sm_70.ptx:1470) add.s32 %r24758, %r24758, 1;
GPGPU-Sim PTX: 49 (potential) branch divergence @  PC=0x2238 (main.1.sm_70.ptx:1472) @%p4158 bra BB0_87;
GPGPU-Sim PTX:    immediate post dominator      @  PC=0x2240 (main.1.sm_70.ptx:1474) xor.b32 %r6708, %r6028, 9;
GPGPU-Sim PTX: 50 (potential) branch divergence @  PC=0x22c8 (main.1.sm_70.ptx:1493) @%p4160 bra BB0_99;
GPGPU-Sim PTX:    immediate post dominator      @  PC=0x2330 (main.1.sm_70.ptx:1509) shfl.sync.idx.b32 %r222|%p149, %r6717, %r6036, %r6066, %r6067;
GPGPU-Sim PTX: 51 (potential) branch divergence @  PC=0x2350 (main.1.sm_70.ptx:1513) @%p4160 bra BB0_101;
GPGPU-Sim PTX:    immediate post dominator      @  PC=0x23b8 (main.1.sm_70.ptx:1529) shfl.sync.idx.b32 %r226|%p153, %r6717, %r6046, %r6066, %r6067;
GPGPU-Sim PTX: 52 (potential) branch divergence @  PC=0x23d8 (main.1.sm_70.ptx:1533) @%p4160 bra BB0_103;
GPGPU-Sim PTX:    immediate post dominator      @  PC=0x2440 (main.1.sm_70.ptx:1549) shfl.sync.idx.b32 %r230|%p157, %r6717, %r6037, %r6066, %r6067;
GPGPU-Sim PTX: 53 (potential) branch divergence @  PC=0x2460 (main.1.sm_70.ptx:1553) @%p4160 bra BB0_105;
GPGPU-Sim PTX:    immediate post dominator      @  PC=0x24c8 (main.1.sm_70.ptx:1569) add.s32 %r24759, %r24759, 1;
GPGPU-Sim PTX: 54 (potential) branch divergence @  PC=0x24d8 (main.1.sm_70.ptx:1571) @%p4164 bra BB0_97;
GPGPU-Sim PTX:    immediate post dominator      @  PC=0x24e0 (main.1.sm_70.ptx:1573) xor.b32 %r6780, %r6028, 10;
GPGPU-Sim PTX: 55 (potential) branch divergence @  PC=0x2568 (main.1.sm_70.ptx:1592) @%p4166 bra BB0_109;
GPGPU-Sim PTX:    immediate post dominator      @  PC=0x25d0 (main.1.sm_70.ptx:1608) shfl.sync.idx.b32 %r245|%p165, %r6789, %r6036, %r6066, %r6067;
GPGPU-Sim PTX: 56 (potential) branch divergence @  PC=0x25f0 (main.1.sm_70.ptx:1612) @%p4166 bra BB0_111;
GPGPU-Sim PTX:    immediate post dominator      @  PC=0x2658 (main.1.sm_70.ptx:1628) shfl.sync.idx.b32 %r249|%p169, %r6789, %r6046, %r6066, %r6067;
GPGPU-Sim PTX: 57 (potential) branch divergence @  PC=0x2678 (main.1.sm_70.ptx:1632) @%p4166 bra BB0_113;
GPGPU-Sim PTX:    immediate post dominator      @  PC=0x26e0 (main.1.sm_70.ptx:1648) shfl.sync.idx.b32 %r253|%p173, %r6789, %r6037, %r6066, %r6067;
GPGPU-Sim PTX: 58 (potential) branch divergence @  PC=0x2700 (main.1.sm_70.ptx:1652) @%p4166 bra BB0_115;
GPGPU-Sim PTX:    immediate post dominator      @  PC=0x2768 (main.1.sm_70.ptx:1668) add.s32 %r24760, %r24760, 1;
GPGPU-Sim PTX: 59 (potential) branch divergence @  PC=0x2778 (main.1.sm_70.ptx:1670) @%p4170 bra BB0_107;
GPGPU-Sim PTX:    immediate post dominator      @  PC=0x2780 (main.1.sm_70.ptx:1672) xor.b32 %r6852, %r6028, 11;
GPGPU-Sim PTX: 60 (potential) branch divergence @  PC=0x2808 (main.1.sm_70.ptx:1691) @%p4172 bra BB0_119;
GPGPU-Sim PTX:    immediate post dominator      @  PC=0x2870 (main.1.sm_70.ptx:1707) shfl.sync.idx.b32 %r268|%p181, %r6861, %r6036, %r6066, %r6067;
GPGPU-Sim PTX: 61 (potential) branch divergence @  PC=0x2890 (main.1.sm_70.ptx:1711) @%p4172 bra BB0_121;
GPGPU-Sim PTX:    immediate post dominator      @  PC=0x28f8 (main.1.sm_70.ptx:1727) shfl.sync.idx.b32 %r272|%p185, %r6861, %r6046, %r6066, %r6067;
GPGPU-Sim PTX: 62 (potential) branch divergence @  PC=0x2918 (main.1.sm_70.ptx:1731) @%p4172 bra BB0_123;
GPGPU-Sim PTX:    immediate post dominator      @  PC=0x2980 (main.1.sm_70.ptx:1747) shfl.sync.idx.b32 %r276|%p189, %r6861, %r6037, %r6066, %r6067;
GPGPU-Sim PTX: 63 (potential) branch divergence @  PC=0x29a0 (main.1.sm_70.ptx:1751) @%p4172 bra BB0_125;
GPGPU-Sim PTX:    immediate post dominator      @  PC=0x2a08 (main.1.sm_70.ptx:1767) add.s32 %r24761, %r24761, 1;
GPGPU-Sim PTX: 64 (potential) branch divergence @  PC=0x2a18 (main.1.sm_70.ptx:1769) @%p4176 bra BB0_117;
GPGPU-Sim PTX:    immediate post dominator      @  PC=0x2a20 (main.1.sm_70.ptx:1771) xor.b32 %r6924, %r6028, 12;
GPGPU-Sim PTX: 65 (potential) branch divergence @  PC=0x2aa8 (main.1.sm_70.ptx:1790) @%p4178 bra BB0_129;
GPGPU-Sim PTX:    immediate post dominator      @  PC=0x2b10 (main.1.sm_70.ptx:1806) shfl.sync.idx.b32 %r291|%p197, %r6933, %r6036, %r6066, %r6067;
GPGPU-Sim PTX: 66 (potential) branch divergence @  PC=0x2b30 (main.1.sm_70.ptx:1810) @%p4178 bra BB0_131;
GPGPU-Sim PTX:    immediate post dominator      @  PC=0x2b98 (main.1.sm_70.ptx:1826) shfl.sync.idx.b32 %r295|%p201, %r6933, %r6046, %r6066, %r6067;
GPGPU-Sim PTX: 67 (potential) branch divergence @  PC=0x2bb8 (main.1.sm_70.ptx:1830) @%p4178 bra BB0_133;
GPGPU-Sim PTX:    immediate post dominator      @  PC=0x2c20 (main.1.sm_70.ptx:1846) shfl.sync.idx.b32 %r299|%p205, %r6933, %r6037, %r6066, %r6067;
GPGPU-Sim PTX: 68 (potential) branch divergence @  PC=0x2c40 (main.1.sm_70.ptx:1850) @%p4178 bra BB0_135;
GPGPU-Sim PTX:    immediate post dominator      @  PC=0x2ca8 (main.1.sm_70.ptx:1866) add.s32 %r24762, %r24762, 1;
GPGPU-Sim PTX: 69 (potential) branch divergence @  PC=0x2cb8 (main.1.sm_70.ptx:1868) @%p4182 bra BB0_127;
GPGPU-Sim PTX:    immediate post dominator      @  PC=0x2cc0 (main.1.sm_70.ptx:1870) xor.b32 %r6996, %r6028, 13;
GPGPU-Sim PTX: 70 (potential) branch divergence @  PC=0x2d48 (main.1.sm_70.ptx:1889) @%p4184 bra BB0_139;
GPGPU-Sim PTX:    immediate post dominator      @  PC=0x2db0 (main.1.sm_70.ptx:1905) shfl.sync.idx.b32 %r314|%p213, %r7005, %r6036, %r6066, %r6067;
GPGPU-Sim PTX: 71 (potential) branch divergence @  PC=0x2dd0 (main.1.sm_70.ptx:1909) @%p4184 bra BB0_141;
GPGPU-Sim PTX:    immediate post dominator      @  PC=0x2e38 (main.1.sm_70.ptx:1925) shfl.sync.idx.b32 %r318|%p217, %r7005, %r6046, %r6066, %r6067;
GPGPU-Sim PTX: 72 (potential) branch divergence @  PC=0x2e58 (main.1.sm_70.ptx:1929) @%p4184 bra BB0_143;
GPGPU-Sim PTX:    immediate post dominator      @  PC=0x2ec0 (main.1.sm_70.ptx:1945) shfl.sync.idx.b32 %r322|%p221, %r7005, %r6037, %r6066, %r6067;
GPGPU-Sim PTX: 73 (potential) branch divergence @  PC=0x2ee0 (main.1.sm_70.ptx:1949) @%p4184 bra BB0_145;
GPGPU-Sim PTX:    immediate post dominator      @  PC=0x2f48 (main.1.sm_70.ptx:1965) add.s32 %r24763, %r24763, 1;
GPGPU-Sim PTX: 74 (potential) branch divergence @  PC=0x2f58 (main.1.sm_70.ptx:1967) @%p4188 bra BB0_137;
GPGPU-Sim PTX:    immediate post dominator      @  PC=0x2f60 (main.1.sm_70.ptx:1969) xor.b32 %r7068, %r6028, 14;
GPGPU-Sim PTX: 75 (potential) branch divergence @  PC=0x2fe8 (main.1.sm_70.ptx:1988) @%p4190 bra BB0_149;
GPGPU-Sim PTX:    immediate post dominator      @  PC=0x3050 (main.1.sm_70.ptx:2004) shfl.sync.idx.b32 %r337|%p229, %r7077, %r6036, %r6066, %r6067;
GPGPU-Sim PTX: 76 (potential) branch divergence @  PC=0x3070 (main.1.sm_70.ptx:2008) @%p4190 bra BB0_151;
GPGPU-Sim PTX:    immediate post dominator      @  PC=0x30d8 (main.1.sm_70.ptx:2024) shfl.sync.idx.b32 %r341|%p233, %r7077, %r6046, %r6066, %r6067;
GPGPU-Sim PTX: 77 (potential) branch divergence @  PC=0x30f8 (main.1.sm_70.ptx:2028) @%p4190 bra BB0_153;
GPGPU-Sim PTX:    immediate post dominator      @  PC=0x3160 (main.1.sm_70.ptx:2044) shfl.sync.idx.b32 %r345|%p237, %r7077, %r6037, %r6066, %r6067;
GPGPU-Sim PTX: 78 (potential) branch divergence @  PC=0x3180 (main.1.sm_70.ptx:2048) @%p4190 bra BB0_155;
GPGPU-Sim PTX:    immediate post dominator      @  PC=0x31e8 (main.1.sm_70.ptx:2064) add.s32 %r24764, %r24764, 1;
GPGPU-Sim PTX: 79 (potential) branch divergence @  PC=0x31f8 (main.1.sm_70.ptx:2066) @%p4194 bra BB0_147;
GPGPU-Sim PTX:    immediate post dominator      @  PC=0x3200 (main.1.sm_70.ptx:2068) xor.b32 %r7140, %r6028, 15;
GPGPU-Sim PTX: 80 (potential) branch divergence @  PC=0x3288 (main.1.sm_70.ptx:2087) @%p4196 bra BB0_159;
GPGPU-Sim PTX:    immediate post dominator      @  PC=0x32f0 (main.1.sm_70.ptx:2103) shfl.sync.idx.b32 %r360|%p245, %r7149, %r6036, %r6066, %r6067;
GPGPU-Sim PTX: 81 (potential) branch divergence @  PC=0x3310 (main.1.sm_70.ptx:2107) @%p4196 bra BB0_161;
GPGPU-Sim PTX:    immediate post dominator      @  PC=0x3378 (main.1.sm_70.ptx:2123) shfl.sync.idx.b32 %r364|%p249, %r7149, %r6046, %r6066, %r6067;
GPGPU-Sim PTX: 82 (potential) branch divergence @  PC=0x3398 (main.1.sm_70.ptx:2127) @%p4196 bra BB0_163;
GPGPU-Sim PTX:    immediate post dominator      @  PC=0x3400 (main.1.sm_70.ptx:2143) shfl.sync.idx.b32 %r368|%p253, %r7149, %r6037, %r6066, %r6067;
GPGPU-Sim PTX: 83 (potential) branch divergence @  PC=0x3420 (main.1.sm_70.ptx:2147) @%p4196 bra BB0_165;
GPGPU-Sim PTX:    immediate post dominator      @  PC=0x3488 (main.1.sm_70.ptx:2163) add.s32 %r24765, %r24765, 1;
GPGPU-Sim PTX: 84 (potential) branch divergence @  PC=0x3498 (main.1.sm_70.ptx:2165) @%p4200 bra BB0_157;
GPGPU-Sim PTX:    immediate post dominator      @  PC=0x34a0 (main.1.sm_70.ptx:2167) xor.b32 %r7212, %r6028, 16;
GPGPU-Sim PTX: 85 (potential) branch divergence @  PC=0x3528 (main.1.sm_70.ptx:2186) @%p4202 bra BB0_169;
GPGPU-Sim PTX:    immediate post dominator      @  PC=0x3590 (main.1.sm_70.ptx:2202) shfl.sync.idx.b32 %r383|%p261, %r7221, %r6036, %r6066, %r6067;
GPGPU-Sim PTX: 86 (potential) branch divergence @  PC=0x35b0 (main.1.sm_70.ptx:2206) @%p4202 bra BB0_171;
GPGPU-Sim PTX:    immediate post dominator      @  PC=0x3618 (main.1.sm_70.ptx:2222) shfl.sync.idx.b32 %r387|%p265, %r7221, %r6046, %r6066, %r6067;
GPGPU-Sim PTX: 87 (potential) branch divergence @  PC=0x3638 (main.1.sm_70.ptx:2226) @%p4202 bra BB0_173;
GPGPU-Sim PTX:    immediate post dominator      @  PC=0x36a0 (main.1.sm_70.ptx:2242) shfl.sync.idx.b32 %r391|%p269, %r7221, %r6037, %r6066, %r6067;
GPGPU-Sim PTX: 88 (potential) branch divergence @  PC=0x36c0 (main.1.sm_70.ptx:2246) @%p4202 bra BB0_175;
GPGPU-Sim PTX:    immediate post dominator      @  PC=0x3728 (main.1.sm_70.ptx:2262) add.s32 %r24766, %r24766, 1;
GPGPU-Sim PTX: 89 (potential) branch divergence @  PC=0x3738 (main.1.sm_70.ptx:2264) @%p4206 bra BB0_167;
GPGPU-Sim PTX:    immediate post dominator      @  PC=0x3740 (main.1.sm_70.ptx:2266) xor.b32 %r7284, %r6028, 17;
GPGPU-Sim PTX: 90 (potential) branch divergence @  PC=0x37c8 (main.1.sm_70.ptx:2285) @%p4208 bra BB0_179;
GPGPU-Sim PTX:    immediate post dominator      @  PC=0x3830 (main.1.sm_70.ptx:2301) shfl.sync.idx.b32 %r406|%p277, %r7293, %r6036, %r6066, %r6067;
GPGPU-Sim PTX: 91 (potential) branch divergence @  PC=0x3850 (main.1.sm_70.ptx:2305) @%p4208 bra BB0_181;
GPGPU-Sim PTX:    immediate post dominator      @  PC=0x38b8 (main.1.sm_70.ptx:2321) shfl.sync.idx.b32 %r410|%p281, %r7293, %r6046, %r6066, %r6067;
GPGPU-Sim PTX: 92 (potential) branch divergence @  PC=0x38d8 (main.1.sm_70.ptx:2325) @%p4208 bra BB0_183;
GPGPU-Sim PTX:    immediate post dominator      @  PC=0x3940 (main.1.sm_70.ptx:2341) shfl.sync.idx.b32 %r414|%p285, %r7293, %r6037, %r6066, %r6067;
GPGPU-Sim PTX: 93 (potential) branch divergence @  PC=0x3960 (main.1.sm_70.ptx:2345) @%p4208 bra BB0_185;
GPGPU-Sim PTX:    immediate post dominator      @  PC=0x39c8 (main.1.sm_70.ptx:2361) add.s32 %r24767, %r24767, 1;
GPGPU-Sim PTX: 94 (potential) branch divergence @  PC=0x39d8 (main.1.sm_70.ptx:2363) @%p4212 bra BB0_177;
GPGPU-Sim PTX:    immediate post dominator      @  PC=0x39e0 (main.1.sm_70.ptx:2365) xor.b32 %r7356, %r6028, 18;
GPGPU-Sim PTX: 95 (potential) branch divergence @  PC=0x3a68 (main.1.sm_70.ptx:2384) @%p4214 bra BB0_189;
GPGPU-Sim PTX:    immediate post dominator      @  PC=0x3ad0 (main.1.sm_70.ptx:2400) shfl.sync.idx.b32 %r429|%p293, %r7365, %r6036, %r6066, %r6067;
GPGPU-Sim PTX: 96 (potential) branch divergence @  PC=0x3af0 (main.1.sm_70.ptx:2404) @%p4214 bra BB0_191;
GPGPU-Sim PTX:    immediate post dominator      @  PC=0x3b58 (main.1.sm_70.ptx:2420) shfl.sync.idx.b32 %r433|%p297, %r7365, %r6046, %r6066, %r6067;
GPGPU-Sim PTX: 97 (potential) branch divergence @  PC=0x3b78 (main.1.sm_70.ptx:2424) @%p4214 bra BB0_193;
GPGPU-Sim PTX:    immediate post dominator      @  PC=0x3be0 (main.1.sm_70.ptx:2440) shfl.sync.idx.b32 %r437|%p301, %r7365, %r6037, %r6066, %r6067;
GPGPU-Sim PTX: 98 (potential) branch divergence @  PC=0x3c00 (main.1.sm_70.ptx:2444) @%p4214 bra BB0_195;
GPGPU-Sim PTX:    immediate post dominator      @  PC=0x3c68 (main.1.sm_70.ptx:2460) add.s32 %r24768, %r24768, 1;
GPGPU-Sim PTX: 99 (potential) branch divergence @  PC=0x3c78 (main.1.sm_70.ptx:2462) @%p4218 bra BB0_187;
GPGPU-Sim PTX:    immediate post dominator      @  PC=0x3c80 (main.1.sm_70.ptx:2464) xor.b32 %r7428, %r6028, 19;
GPGPU-Sim PTX: 100 (potential) branch divergence @  PC=0x3d08 (main.1.sm_70.ptx:2483) @%p4220 bra BB0_199;
GPGPU-Sim PTX:    immediate post dominator      @  PC=0x3d70 (main.1.sm_70.ptx:2499) shfl.sync.idx.b32 %r452|%p309, %r7437, %r6036, %r6066, %r6067;
GPGPU-Sim PTX: 101 (potential) branch divergence @  PC=0x3d90 (main.1.sm_70.ptx:2503) @%p4220 bra BB0_201;
GPGPU-Sim PTX:    immediate post dominator      @  PC=0x3df8 (main.1.sm_70.ptx:2519) shfl.sync.idx.b32 %r456|%p313, %r7437, %r6046, %r6066, %r6067;
GPGPU-Sim PTX: 102 (potential) branch divergence @  PC=0x3e18 (main.1.sm_70.ptx:2523) @%p4220 bra BB0_203;
GPGPU-Sim PTX:    immediate post dominator      @  PC=0x3e80 (main.1.sm_70.ptx:2539) shfl.sync.idx.b32 %r460|%p317, %r7437, %r6037, %r6066, %r6067;
GPGPU-Sim PTX: 103 (potential) branch divergence @  PC=0x3ea0 (main.1.sm_70.ptx:2543) @%p4220 bra BB0_205;
GPGPU-Sim PTX:    immediate post dominator      @  PC=0x3f08 (main.1.sm_70.ptx:2559) add.s32 %r24769, %r24769, 1;
GPGPU-Sim PTX: 104 (potential) branch divergence @  PC=0x3f18 (main.1.sm_70.ptx:2561) @%p4224 bra BB0_197;
GPGPU-Sim PTX:    immediate post dominator      @  PC=0x3f20 (main.1.sm_70.ptx:2563) xor.b32 %r7500, %r6028, 20;
GPGPU-Sim PTX: 105 (potential) branch divergence @  PC=0x3fa8 (main.1.sm_70.ptx:2582) @%p4226 bra BB0_209;
GPGPU-Sim PTX:    immediate post dominator      @  PC=0x4010 (main.1.sm_70.ptx:2598) shfl.sync.idx.b32 %r475|%p325, %r7509, %r6036, %r6066, %r6067;
GPGPU-Sim PTX: 106 (potential) branch divergence @  PC=0x4030 (main.1.sm_70.ptx:2602) @%p4226 bra BB0_211;
GPGPU-Sim PTX:    immediate post dominator      @  PC=0x4098 (main.1.sm_70.ptx:2618) shfl.sync.idx.b32 %r479|%p329, %r7509, %r6046, %r6066, %r6067;
GPGPU-Sim PTX: 107 (potential) branch divergence @  PC=0x40b8 (main.1.sm_70.ptx:2622) @%p4226 bra BB0_213;
GPGPU-Sim PTX:    immediate post dominator      @  PC=0x4120 (main.1.sm_70.ptx:2638) shfl.sync.idx.b32 %r483|%p333, %r7509, %r6037, %r6066, %r6067;
GPGPU-Sim PTX: 108 (potential) branch divergence @  PC=0x4140 (main.1.sm_70.ptx:2642) @%p4226 bra BB0_215;
GPGPU-Sim PTX:    immediate post dominator      @  PC=0x41a8 (main.1.sm_70.ptx:2658) add.s32 %r24770, %r24770, 1;
GPGPU-Sim PTX: 109 (potential) branch divergence @  PC=0x41b8 (main.1.sm_70.ptx:2660) @%p4230 bra BB0_207;
GPGPU-Sim PTX:    immediate post dominator      @  PC=0x41c0 (main.1.sm_70.ptx:2662) xor.b32 %r7572, %r6028, 21;
GPGPU-Sim PTX: 110 (potential) branch divergence @  PC=0x4248 (main.1.sm_70.ptx:2681) @%p4232 bra BB0_219;
GPGPU-Sim PTX:    immediate post dominator      @  PC=0x42b0 (main.1.sm_70.ptx:2697) shfl.sync.idx.b32 %r498|%p341, %r7581, %r6036, %r6066, %r6067;
GPGPU-Sim PTX: 111 (potential) branch divergence @  PC=0x42d0 (main.1.sm_70.ptx:2701) @%p4232 bra BB0_221;
GPGPU-Sim PTX:    immediate post dominator      @  PC=0x4338 (main.1.sm_70.ptx:2717) shfl.sync.idx.b32 %r502|%p345, %r7581, %r6046, %r6066, %r6067;
GPGPU-Sim PTX: 112 (potential) branch divergence @  PC=0x4358 (main.1.sm_70.ptx:2721) @%p4232 bra BB0_223;
GPGPU-Sim PTX:    immediate post dominator      @  PC=0x43c0 (main.1.sm_70.ptx:2737) shfl.sync.idx.b32 %r506|%p349, %r7581, %r6037, %r6066, %r6067;
GPGPU-Sim PTX: 113 (potential) branch divergence @  PC=0x43e0 (main.1.sm_70.ptx:2741) @%p4232 bra BB0_225;
GPGPU-Sim PTX:    immediate post dominator      @  PC=0x4448 (main.1.sm_70.ptx:2757) add.s32 %r24771, %r24771, 1;
GPGPU-Sim PTX: 114 (potential) branch divergence @  PC=0x4458 (main.1.sm_70.ptx:2759) @%p4236 bra BB0_217;
GPGPU-Sim PTX:    immediate post dominator      @  PC=0x4460 (main.1.sm_70.ptx:2761) xor.b32 %r7644, %r6028, 22;
GPGPU-Sim PTX: 115 (potential) branch divergence @  PC=0x44e8 (main.1.sm_70.ptx:2780) @%p4238 bra BB0_229;
GPGPU-Sim PTX:    immediate post dominator      @  PC=0x4550 (main.1.sm_70.ptx:2796) shfl.sync.idx.b32 %r521|%p357, %r7653, %r6036, %r6066, %r6067;
GPGPU-Sim PTX: 116 (potential) branch divergence @  PC=0x4570 (main.1.sm_70.ptx:2800) @%p4238 bra BB0_231;
GPGPU-Sim PTX:    immediate post dominator      @  PC=0x45d8 (main.1.sm_70.ptx:2816) shfl.sync.idx.b32 %r525|%p361, %r7653, %r6046, %r6066, %r6067;
GPGPU-Sim PTX: 117 (potential) branch divergence @  PC=0x45f8 (main.1.sm_70.ptx:2820) @%p4238 bra BB0_233;
GPGPU-Sim PTX:    immediate post dominator      @  PC=0x4660 (main.1.sm_70.ptx:2836) shfl.sync.idx.b32 %r529|%p365, %r7653, %r6037, %r6066, %r6067;
GPGPU-Sim PTX: 118 (potential) branch divergence @  PC=0x4680 (main.1.sm_70.ptx:2840) @%p4238 bra BB0_235;
GPGPU-Sim PTX:    immediate post dominator      @  PC=0x46e8 (main.1.sm_70.ptx:2856) add.s32 %r24772, %r24772, 1;
GPGPU-Sim PTX: 119 (potential) branch divergence @  PC=0x46f8 (main.1.sm_70.ptx:2858) @%p4242 bra BB0_227;
GPGPU-Sim PTX:    immediate post dominator      @  PC=0x4700 (main.1.sm_70.ptx:2860) xor.b32 %r7716, %r6028, 23;
GPGPU-Sim PTX: 120 (potential) branch divergence @  PC=0x4788 (main.1.sm_70.ptx:2879) @%p4244 bra BB0_239;
GPGPU-Sim PTX:    immediate post dominator      @  PC=0x47f0 (main.1.sm_70.ptx:2895) shfl.sync.idx.b32 %r544|%p373, %r7725, %r6036, %r6066, %r6067;
GPGPU-Sim PTX: 121 (potential) branch divergence @  PC=0x4810 (main.1.sm_70.ptx:2899) @%p4244 bra BB0_241;
GPGPU-Sim PTX:    immediate post dominator      @  PC=0x4878 (main.1.sm_70.ptx:2915) shfl.sync.idx.b32 %r548|%p377, %r7725, %r6046, %r6066, %r6067;
GPGPU-Sim PTX: 122 (potential) branch divergence @  PC=0x4898 (main.1.sm_70.ptx:2919) @%p4244 bra BB0_243;
GPGPU-Sim PTX:    immediate post dominator      @  PC=0x4900 (main.1.sm_70.ptx:2935) shfl.sync.idx.b32 %r552|%p381, %r7725, %r6037, %r6066, %r6067;
GPGPU-Sim PTX: 123 (potential) branch divergence @  PC=0x4920 (main.1.sm_70.ptx:2939) @%p4244 bra BB0_245;
GPGPU-Sim PTX:    immediate post dominator      @  PC=0x4988 (main.1.sm_70.ptx:2955) add.s32 %r24773, %r24773, 1;
GPGPU-Sim PTX: 124 (potential) branch divergence @  PC=0x4998 (main.1.sm_70.ptx:2957) @%p4248 bra BB0_237;
GPGPU-Sim PTX:    immediate post dominator      @  PC=0x49a0 (main.1.sm_70.ptx:2959) xor.b32 %r7788, %r6028, 24;
GPGPU-Sim PTX: 125 (potential) branch divergence @  PC=0x4a28 (main.1.sm_70.ptx:2978) @%p4250 bra BB0_249;
GPGPU-Sim PTX:    immediate post dominator      @  PC=0x4a90 (main.1.sm_70.ptx:2994) shfl.sync.idx.b32 %r567|%p389, %r7797, %r6036, %r6066, %r6067;
GPGPU-Sim PTX: 126 (potential) branch divergence @  PC=0x4ab0 (main.1.sm_70.ptx:2998) @%p4250 bra BB0_251;
GPGPU-Sim PTX:    immediate post dominator      @  PC=0x4b18 (main.1.sm_70.ptx:3014) shfl.sync.idx.b32 %r571|%p393, %r7797, %r6046, %r6066, %r6067;
GPGPU-Sim PTX: 127 (potential) branch divergence @  PC=0x4b38 (main.1.sm_70.ptx:3018) @%p4250 bra BB0_253;
GPGPU-Sim PTX:    immediate post dominator      @  PC=0x4ba0 (main.1.sm_70.ptx:3034) shfl.sync.idx.b32 %r575|%p397, %r7797, %r6037, %r6066, %r6067;
GPGPU-Sim PTX: 128 (potential) branch divergence @  PC=0x4bc0 (main.1.sm_70.ptx:3038) @%p4250 bra BB0_255;
GPGPU-Sim PTX:    immediate post dominator      @  PC=0x4c28 (main.1.sm_70.ptx:3054) add.s32 %r24774, %r24774, 1;
GPGPU-Sim PTX: 129 (potential) branch divergence @  PC=0x4c38 (main.1.sm_70.ptx:3056) @%p4254 bra BB0_247;
GPGPU-Sim PTX:    immediate post dominator      @  PC=0x4c40 (main.1.sm_70.ptx:3058) xor.b32 %r7860, %r6028, 25;
GPGPU-Sim PTX: 130 (potential) branch divergence @  PC=0x4cc8 (main.1.sm_70.ptx:3077) @%p4256 bra BB0_259;
GPGPU-Sim PTX:    immediate post dominator      @  PC=0x4d30 (main.1.sm_70.ptx:3093) shfl.sync.idx.b32 %r590|%p405, %r7869, %r6036, %r6066, %r6067;
GPGPU-Sim PTX: 131 (potential) branch divergence @  PC=0x4d50 (main.1.sm_70.ptx:3097) @%p4256 bra BB0_261;
GPGPU-Sim PTX:    immediate post dominator      @  PC=0x4db8 (main.1.sm_70.ptx:3113) shfl.sync.idx.b32 %r594|%p409, %r7869, %r6046, %r6066, %r6067;
GPGPU-Sim PTX: 132 (potential) branch divergence @  PC=0x4dd8 (main.1.sm_70.ptx:3117) @%p4256 bra BB0_263;
GPGPU-Sim PTX:    immediate post dominator      @  PC=0x4e40 (main.1.sm_70.ptx:3133) shfl.sync.idx.b32 %r598|%p413, %r7869, %r6037, %r6066, %r6067;
GPGPU-Sim PTX: 133 (potential) branch divergence @  PC=0x4e60 (main.1.sm_70.ptx:3137) @%p4256 bra BB0_265;
GPGPU-Sim PTX:    immediate post dominator      @  PC=0x4ec8 (main.1.sm_70.ptx:3153) add.s32 %r24775, %r24775, 1;
GPGPU-Sim PTX: 134 (potential) branch divergence @  PC=0x4ed8 (main.1.sm_70.ptx:3155) @%p4260 bra BB0_257;
GPGPU-Sim PTX:    immediate post dominator      @  PC=0x4ee0 (main.1.sm_70.ptx:3157) xor.b32 %r7932, %r6028, 26;
GPGPU-Sim PTX: 135 (potential) branch divergence @  PC=0x4f68 (main.1.sm_70.ptx:3176) @%p4262 bra BB0_269;
GPGPU-Sim PTX:    immediate post dominator      @  PC=0x4fd0 (main.1.sm_70.ptx:3192) shfl.sync.idx.b32 %r613|%p421, %r7941, %r6036, %r6066, %r6067;
GPGPU-Sim PTX: 136 (potential) branch divergence @  PC=0x4ff0 (main.1.sm_70.ptx:3196) @%p4262 bra BB0_271;
GPGPU-Sim PTX:    immediate post dominator      @  PC=0x5058 (main.1.sm_70.ptx:3212) shfl.sync.idx.b32 %r617|%p425, %r7941, %r6046, %r6066, %r6067;
GPGPU-Sim PTX: 137 (potential) branch divergence @  PC=0x5078 (main.1.sm_70.ptx:3216) @%p4262 bra BB0_273;
GPGPU-Sim PTX:    immediate post dominator      @  PC=0x50e0 (main.1.sm_70.ptx:3232) shfl.sync.idx.b32 %r621|%p429, %r7941, %r6037, %r6066, %r6067;
GPGPU-Sim PTX: 138 (potential) branch divergence @  PC=0x5100 (main.1.sm_70.ptx:3236) @%p4262 bra BB0_275;
GPGPU-Sim PTX:    immediate post dominator      @  PC=0x5168 (main.1.sm_70.ptx:3252) add.s32 %r24776, %r24776, 1;
GPGPU-Sim PTX: 139 (potential) branch divergence @  PC=0x5178 (main.1.sm_70.ptx:3254) @%p4266 bra BB0_267;
GPGPU-Sim PTX:    immediate post dominator      @  PC=0x5180 (main.1.sm_70.ptx:3256) xor.b32 %r8004, %r6028, 27;
GPGPU-Sim PTX: 140 (potential) branch divergence @  PC=0x5208 (main.1.sm_70.ptx:3275) @%p4268 bra BB0_279;
GPGPU-Sim PTX:    immediate post dominator      @  PC=0x5270 (main.1.sm_70.ptx:3291) shfl.sync.idx.b32 %r636|%p437, %r8013, %r6036, %r6066, %r6067;
GPGPU-Sim PTX: 141 (potential) branch divergence @  PC=0x5290 (main.1.sm_70.ptx:3295) @%p4268 bra BB0_281;
GPGPU-Sim PTX:    immediate post dominator      @  PC=0x52f8 (main.1.sm_70.ptx:3311) shfl.sync.idx.b32 %r640|%p441, %r8013, %r6046, %r6066, %r6067;
GPGPU-Sim PTX: 142 (potential) branch divergence @  PC=0x5318 (main.1.sm_70.ptx:3315) @%p4268 bra BB0_283;
GPGPU-Sim PTX:    immediate post dominator      @  PC=0x5380 (main.1.sm_70.ptx:3331) shfl.sync.idx.b32 %r644|%p445, %r8013, %r6037, %r6066, %r6067;
GPGPU-Sim PTX: 143 (potential) branch divergence @  PC=0x53a0 (main.1.sm_70.ptx:3335) @%p4268 bra BB0_285;
GPGPU-Sim PTX:    immediate post dominator      @  PC=0x5408 (main.1.sm_70.ptx:3351) add.s32 %r24777, %r24777, 1;
GPGPU-Sim PTX: 144 (potential) branch divergence @  PC=0x5418 (main.1.sm_70.ptx:3353) @%p4272 bra BB0_277;
GPGPU-Sim PTX:    immediate post dominator      @  PC=0x5420 (main.1.sm_70.ptx:3355) xor.b32 %r8076, %r6028, 28;
GPGPU-Sim PTX: 145 (potential) branch divergence @  PC=0x54a8 (main.1.sm_70.ptx:3374) @%p4274 bra BB0_289;
GPGPU-Sim PTX:    immediate post dominator      @  PC=0x5510 (main.1.sm_70.ptx:3390) shfl.sync.idx.b32 %r659|%p453, %r8085, %r6036, %r6066, %r6067;
GPGPU-Sim PTX: 146 (potential) branch divergence @  PC=0x5530 (main.1.sm_70.ptx:3394) @%p4274 bra BB0_291;
GPGPU-Sim PTX:    immediate post dominator      @  PC=0x5598 (main.1.sm_70.ptx:3410) shfl.sync.idx.b32 %r663|%p457, %r8085, %r6046, %r6066, %r6067;
GPGPU-Sim PTX: 147 (potential) branch divergence @  PC=0x55b8 (main.1.sm_70.ptx:3414) @%p4274 bra BB0_293;
GPGPU-Sim PTX:    immediate post dominator      @  PC=0x5620 (main.1.sm_70.ptx:3430) shfl.sync.idx.b32 %r667|%p461, %r8085, %r6037, %r6066, %r6067;
GPGPU-Sim PTX: 148 (potential) branch divergence @  PC=0x5640 (main.1.sm_70.ptx:3434) @%p4274 bra BB0_295;
GPGPU-Sim PTX:    immediate post dominator      @  PC=0x56a8 (main.1.sm_70.ptx:3450) add.s32 %r24778, %r24778, 1;
GPGPU-Sim PTX: 149 (potential) branch divergence @  PC=0x56b8 (main.1.sm_70.ptx:3452) @%p4278 bra BB0_287;
GPGPU-Sim PTX:    immediate post dominator      @  PC=0x56c0 (main.1.sm_70.ptx:3454) xor.b32 %r8148, %r6028, 29;
GPGPU-Sim PTX: 150 (potential) branch divergence @  PC=0x5748 (main.1.sm_70.ptx:3473) @%p4280 bra BB0_299;
GPGPU-Sim PTX:    immediate post dominator      @  PC=0x57b0 (main.1.sm_70.ptx:3489) shfl.sync.idx.b32 %r682|%p469, %r8157, %r6036, %r6066, %r6067;
GPGPU-Sim PTX: 151 (potential) branch divergence @  PC=0x57d0 (main.1.sm_70.ptx:3493) @%p4280 bra BB0_301;
GPGPU-Sim PTX:    immediate post dominator      @  PC=0x5838 (main.1.sm_70.ptx:3509) shfl.sync.idx.b32 %r686|%p473, %r8157, %r6046, %r6066, %r6067;
GPGPU-Sim PTX: 152 (potential) branch divergence @  PC=0x5858 (main.1.sm_70.ptx:3513) @%p4280 bra BB0_303;
GPGPU-Sim PTX:    immediate post dominator      @  PC=0x58c0 (main.1.sm_70.ptx:3529) shfl.sync.idx.b32 %r690|%p477, %r8157, %r6037, %r6066, %r6067;
GPGPU-Sim PTX: 153 (potential) branch divergence @  PC=0x58e0 (main.1.sm_70.ptx:3533) @%p4280 bra BB0_305;
GPGPU-Sim PTX:    immediate post dominator      @  PC=0x5948 (main.1.sm_70.ptx:3549) add.s32 %r24779, %r24779, 1;
GPGPU-Sim PTX: 154 (potential) branch divergence @  PC=0x5958 (main.1.sm_70.ptx:3551) @%p4284 bra BB0_297;
GPGPU-Sim PTX:    immediate post dominator      @  PC=0x5960 (main.1.sm_70.ptx:3553) xor.b32 %r8220, %r6028, 30;
GPGPU-Sim PTX: 155 (potential) branch divergence @  PC=0x59e8 (main.1.sm_70.ptx:3572) @%p4286 bra BB0_309;
GPGPU-Sim PTX:    immediate post dominator      @  PC=0x5a50 (main.1.sm_70.ptx:3588) shfl.sync.idx.b32 %r705|%p485, %r8229, %r6036, %r6066, %r6067;
GPGPU-Sim PTX: 156 (potential) branch divergence @  PC=0x5a70 (main.1.sm_70.ptx:3592) @%p4286 bra BB0_311;
GPGPU-Sim PTX:    immediate post dominator      @  PC=0x5ad8 (main.1.sm_70.ptx:3608) shfl.sync.idx.b32 %r709|%p489, %r8229, %r6046, %r6066, %r6067;
GPGPU-Sim PTX: 157 (potential) branch divergence @  PC=0x5af8 (main.1.sm_70.ptx:3612) @%p4286 bra BB0_313;
GPGPU-Sim PTX:    immediate post dominator      @  PC=0x5b60 (main.1.sm_70.ptx:3628) shfl.sync.idx.b32 %r713|%p493, %r8229, %r6037, %r6066, %r6067;
GPGPU-Sim PTX: 158 (potential) branch divergence @  PC=0x5b80 (main.1.sm_70.ptx:3632) @%p4286 bra BB0_315;
GPGPU-Sim PTX:    immediate post dominator      @  PC=0x5be8 (main.1.sm_70.ptx:3648) add.s32 %r24780, %r24780, 1;
GPGPU-Sim PTX: 159 (potential) branch divergence @  PC=0x5bf8 (main.1.sm_70.ptx:3650) @%p4290 bra BB0_307;
GPGPU-Sim PTX:    immediate post dominator      @  PC=0x5c00 (main.1.sm_70.ptx:3652) xor.b32 %r8292, %r6028, 31;
GPGPU-Sim PTX: 160 (potential) branch divergence @  PC=0x5c88 (main.1.sm_70.ptx:3671) @%p4292 bra BB0_319;
GPGPU-Sim PTX:    immediate post dominator      @  PC=0x5cf0 (main.1.sm_70.ptx:3687) shfl.sync.idx.b32 %r728|%p501, %r8301, %r6036, %r6066, %r6067;
GPGPU-Sim PTX: 161 (potential) branch divergence @  PC=0x5d10 (main.1.sm_70.ptx:3691) @%p4292 bra BB0_321;
GPGPU-Sim PTX:    immediate post dominator      @  PC=0x5d78 (main.1.sm_70.ptx:3707) shfl.sync.idx.b32 %r732|%p505, %r8301, %r6046, %r6066, %r6067;
GPGPU-Sim PTX: 162 (potential) branch divergence @  PC=0x5d98 (main.1.sm_70.ptx:3711) @%p4292 bra BB0_323;
GPGPU-Sim PTX:    immediate post dominator      @  PC=0x5e00 (main.1.sm_70.ptx:3727) shfl.sync.idx.b32 %r736|%p509, %r8301, %r6037, %r6066, %r6067;
GPGPU-Sim PTX: 163 (potential) branch divergence @  PC=0x5e20 (main.1.sm_70.ptx:3731) @%p4292 bra BB0_325;
GPGPU-Sim PTX:    immediate post dominator      @  PC=0x5e88 (main.1.sm_70.ptx:3747) add.s32 %r24781, %r24781, 1;
GPGPU-Sim PTX: 164 (potential) branch divergence @  PC=0x5e98 (main.1.sm_70.ptx:3749) @%p4296 bra BB0_317;
GPGPU-Sim PTX:    immediate post dominator      @  PC=0x5ea0 (main.1.sm_70.ptx:3751) xor.b32 %r8364, %r6028, 32;
GPGPU-Sim PTX: 165 (potential) branch divergence @  PC=0x5f28 (main.1.sm_70.ptx:3770) @%p4298 bra BB0_329;
GPGPU-Sim PTX:    immediate post dominator      @  PC=0x5f90 (main.1.sm_70.ptx:3786) shfl.sync.idx.b32 %r751|%p517, %r8373, %r6036, %r6066, %r6067;
GPGPU-Sim PTX: 166 (potential) branch divergence @  PC=0x5fb0 (main.1.sm_70.ptx:3790) @%p4298 bra BB0_331;
GPGPU-Sim PTX:    immediate post dominator      @  PC=0x6018 (main.1.sm_70.ptx:3806) shfl.sync.idx.b32 %r755|%p521, %r8373, %r6046, %r6066, %r6067;
GPGPU-Sim PTX: 167 (potential) branch divergence @  PC=0x6038 (main.1.sm_70.ptx:3810) @%p4298 bra BB0_333;
GPGPU-Sim PTX:    immediate post dominator      @  PC=0x60a0 (main.1.sm_70.ptx:3826) shfl.sync.idx.b32 %r759|%p525, %r8373, %r6037, %r6066, %r6067;
GPGPU-Sim PTX: 168 (potential) branch divergence @  PC=0x60c0 (main.1.sm_70.ptx:3830) @%p4298 bra BB0_335;
GPGPU-Sim PTX:    immediate post dominator      @  PC=0x6128 (main.1.sm_70.ptx:3846) add.s32 %r24782, %r24782, 1;
GPGPU-Sim PTX: 169 (potential) branch divergence @  PC=0x6138 (main.1.sm_70.ptx:3848) @%p4302 bra BB0_327;
GPGPU-Sim PTX:    immediate post dominator      @  PC=0x6140 (main.1.sm_70.ptx:3850) xor.b32 %r8436, %r6028, 33;
GPGPU-Sim PTX: 170 (potential) branch divergence @  PC=0x61c8 (main.1.sm_70.ptx:3869) @%p4304 bra BB0_339;
GPGPU-Sim PTX:    immediate post dominator      @  PC=0x6230 (main.1.sm_70.ptx:3885) shfl.sync.idx.b32 %r774|%p533, %r8445, %r6036, %r6066, %r6067;
GPGPU-Sim PTX: 171 (potential) branch divergence @  PC=0x6250 (main.1.sm_70.ptx:3889) @%p4304 bra BB0_341;
GPGPU-Sim PTX:    immediate post dominator      @  PC=0x62b8 (main.1.sm_70.ptx:3905) shfl.sync.idx.b32 %r778|%p537, %r8445, %r6046, %r6066, %r6067;
GPGPU-Sim PTX: 172 (potential) branch divergence @  PC=0x62d8 (main.1.sm_70.ptx:3909) @%p4304 bra BB0_343;
GPGPU-Sim PTX:    immediate post dominator      @  PC=0x6340 (main.1.sm_70.ptx:3925) shfl.sync.idx.b32 %r782|%p541, %r8445, %r6037, %r6066, %r6067;
GPGPU-Sim PTX: 173 (potential) branch divergence @  PC=0x6360 (main.1.sm_70.ptx:3929) @%p4304 bra BB0_345;
GPGPU-Sim PTX:    immediate post dominator      @  PC=0x63c8 (main.1.sm_70.ptx:3945) add.s32 %r24783, %r24783, 1;
GPGPU-Sim PTX: 174 (potential) branch divergence @  PC=0x63d8 (main.1.sm_70.ptx:3947) @%p4308 bra BB0_337;
GPGPU-Sim PTX:    immediate post dominator      @  PC=0x63e0 (main.1.sm_70.ptx:3949) xor.b32 %r8508, %r6028, 34;
GPGPU-Sim PTX: 175 (potential) branch divergence @  PC=0x6468 (main.1.sm_70.ptx:3968) @%p4310 bra BB0_349;
GPGPU-Sim PTX:    immediate post dominator      @  PC=0x64d0 (main.1.sm_70.ptx:3984) shfl.sync.idx.b32 %r797|%p549, %r8517, %r6036, %r6066, %r6067;
GPGPU-Sim PTX: 176 (potential) branch divergence @  PC=0x64f0 (main.1.sm_70.ptx:3988) @%p4310 bra BB0_351;
GPGPU-Sim PTX:    immediate post dominator      @  PC=0x6558 (main.1.sm_70.ptx:4004) shfl.sync.idx.b32 %r801|%p553, %r8517, %r6046, %r6066, %r6067;
GPGPU-Sim PTX: 177 (potential) branch divergence @  PC=0x6578 (main.1.sm_70.ptx:4008) @%p4310 bra BB0_353;
GPGPU-Sim PTX:    immediate post dominator      @  PC=0x65e0 (main.1.sm_70.ptx:4024) shfl.sync.idx.b32 %r805|%p557, %r8517, %r6037, %r6066, %r6067;
GPGPU-Sim PTX: 178 (potential) branch divergence @  PC=0x6600 (main.1.sm_70.ptx:4028) @%p4310 bra BB0_355;
GPGPU-Sim PTX:    immediate post dominator      @  PC=0x6668 (main.1.sm_70.ptx:4044) add.s32 %r24784, %r24784, 1;
GPGPU-Sim PTX: 179 (potential) branch divergence @  PC=0x6678 (main.1.sm_70.ptx:4046) @%p4314 bra BB0_347;
GPGPU-Sim PTX:    immediate post dominator      @  PC=0x6680 (main.1.sm_70.ptx:4048) xor.b32 %r8580, %r6028, 35;
GPGPU-Sim PTX: 180 (potential) branch divergence @  PC=0x6708 (main.1.sm_70.ptx:4067) @%p4316 bra BB0_359;
GPGPU-Sim PTX:    immediate post dominator      @  PC=0x6770 (main.1.sm_70.ptx:4083) shfl.sync.idx.b32 %r820|%p565, %r8589, %r6036, %r6066, %r6067;
GPGPU-Sim PTX: 181 (potential) branch divergence @  PC=0x6790 (main.1.sm_70.ptx:4087) @%p4316 bra BB0_361;
GPGPU-Sim PTX:    immediate post dominator      @  PC=0x67f8 (main.1.sm_70.ptx:4103) shfl.sync.idx.b32 %r824|%p569, %r8589, %r6046, %r6066, %r6067;
GPGPU-Sim PTX: 182 (potential) branch divergence @  PC=0x6818 (main.1.sm_70.ptx:4107) @%p4316 bra BB0_363;
GPGPU-Sim PTX:    immediate post dominator      @  PC=0x6880 (main.1.sm_70.ptx:4123) shfl.sync.idx.b32 %r828|%p573, %r8589, %r6037, %r6066, %r6067;
GPGPU-Sim PTX: 183 (potential) branch divergence @  PC=0x68a0 (main.1.sm_70.ptx:4127) @%p4316 bra BB0_365;
GPGPU-Sim PTX:    immediate post dominator      @  PC=0x6908 (main.1.sm_70.ptx:4143) add.s32 %r24785, %r24785, 1;
GPGPU-Sim PTX: 184 (potential) branch divergence @  PC=0x6918 (main.1.sm_70.ptx:4145) @%p4320 bra BB0_357;
GPGPU-Sim PTX:    immediate post dominator      @  PC=0x6920 (main.1.sm_70.ptx:4147) xor.b32 %r8652, %r6028, 36;
GPGPU-Sim PTX: 185 (potential) branch divergence @  PC=0x69a8 (main.1.sm_70.ptx:4166) @%p4322 bra BB0_369;
GPGPU-Sim PTX:    immediate post dominator      @  PC=0x6a10 (main.1.sm_70.ptx:4182) shfl.sync.idx.b32 %r843|%p581, %r8661, %r6036, %r6066, %r6067;
GPGPU-Sim PTX: 186 (potential) branch divergence @  PC=0x6a30 (main.1.sm_70.ptx:4186) @%p4322 bra BB0_371;
GPGPU-Sim PTX:    immediate post dominator      @  PC=0x6a98 (main.1.sm_70.ptx:4202) shfl.sync.idx.b32 %r847|%p585, %r8661, %r6046, %r6066, %r6067;
GPGPU-Sim PTX: 187 (potential) branch divergence @  PC=0x6ab8 (main.1.sm_70.ptx:4206) @%p4322 bra BB0_373;
GPGPU-Sim PTX:    immediate post dominator      @  PC=0x6b20 (main.1.sm_70.ptx:4222) shfl.sync.idx.b32 %r851|%p589, %r8661, %r6037, %r6066, %r6067;
GPGPU-Sim PTX: 188 (potential) branch divergence @  PC=0x6b40 (main.1.sm_70.ptx:4226) @%p4322 bra BB0_375;
GPGPU-Sim PTX:    immediate post dominator      @  PC=0x6ba8 (main.1.sm_70.ptx:4242) add.s32 %r24786, %r24786, 1;
GPGPU-Sim PTX: 189 (potential) branch divergence @  PC=0x6bb8 (main.1.sm_70.ptx:4244) @%p4326 bra BB0_367;
GPGPU-Sim PTX:    immediate post dominator      @  PC=0x6bc0 (main.1.sm_70.ptx:4246) xor.b32 %r8724, %r6028, 37;
GPGPU-Sim PTX: 190 (potential) branch divergence @  PC=0x6c48 (main.1.sm_70.ptx:4265) @%p4328 bra BB0_379;
GPGPU-Sim PTX:    immediate post dominator      @  PC=0x6cb0 (main.1.sm_70.ptx:4281) shfl.sync.idx.b32 %r866|%p597, %r8733, %r6036, %r6066, %r6067;
GPGPU-Sim PTX: 191 (potential) branch divergence @  PC=0x6cd0 (main.1.sm_70.ptx:4285) @%p4328 bra BB0_381;
GPGPU-Sim PTX:    immediate post dominator      @  PC=0x6d38 (main.1.sm_70.ptx:4301) shfl.sync.idx.b32 %r870|%p601, %r8733, %r6046, %r6066, %r6067;
GPGPU-Sim PTX: 192 (potential) branch divergence @  PC=0x6d58 (main.1.sm_70.ptx:4305) @%p4328 bra BB0_383;
GPGPU-Sim PTX:    immediate post dominator      @  PC=0x6dc0 (main.1.sm_70.ptx:4321) shfl.sync.idx.b32 %r874|%p605, %r8733, %r6037, %r6066, %r6067;
GPGPU-Sim PTX: 193 (potential) branch divergence @  PC=0x6de0 (main.1.sm_70.ptx:4325) @%p4328 bra BB0_385;
GPGPU-Sim PTX:    immediate post dominator      @  PC=0x6e48 (main.1.sm_70.ptx:4341) add.s32 %r24787, %r24787, 1;
GPGPU-Sim PTX: 194 (potential) branch divergence @  PC=0x6e58 (main.1.sm_70.ptx:4343) @%p4332 bra BB0_377;
GPGPU-Sim PTX:    immediate post dominator      @  PC=0x6e60 (main.1.sm_70.ptx:4345) xor.b32 %r8796, %r6028, 38;
GPGPU-Sim PTX: 195 (potential) branch divergence @  PC=0x6ee8 (main.1.sm_70.ptx:4364) @%p4334 bra BB0_389;
GPGPU-Sim PTX:    immediate post dominator      @  PC=0x6f50 (main.1.sm_70.ptx:4380) shfl.sync.idx.b32 %r889|%p613, %r8805, %r6036, %r6066, %r6067;
GPGPU-Sim PTX: 196 (potential) branch divergence @  PC=0x6f70 (main.1.sm_70.ptx:4384) @%p4334 bra BB0_391;
GPGPU-Sim PTX:    immediate post dominator      @  PC=0x6fd8 (main.1.sm_70.ptx:4400) shfl.sync.idx.b32 %r893|%p617, %r8805, %r6046, %r6066, %r6067;
GPGPU-Sim PTX: 197 (potential) branch divergence @  PC=0x6ff8 (main.1.sm_70.ptx:4404) @%p4334 bra BB0_393;
GPGPU-Sim PTX:    immediate post dominator      @  PC=0x7060 (main.1.sm_70.ptx:4420) shfl.sync.idx.b32 %r897|%p621, %r8805, %r6037, %r6066, %r6067;
GPGPU-Sim PTX: 198 (potential) branch divergence @  PC=0x7080 (main.1.sm_70.ptx:4424) @%p4334 bra BB0_395;
GPGPU-Sim PTX:    immediate post dominator      @  PC=0x70e8 (main.1.sm_70.ptx:4440) add.s32 %r24788, %r24788, 1;
GPGPU-Sim PTX: 199 (potential) branch divergence @  PC=0x70f8 (main.1.sm_70.ptx:4442) @%p4338 bra BB0_387;
GPGPU-Sim PTX:    immediate post dominator      @  PC=0x7100 (main.1.sm_70.ptx:4444) xor.b32 %r8868, %r6028, 39;
GPGPU-Sim PTX: 200 (potential) branch divergence @  PC=0x7188 (main.1.sm_70.ptx:4463) @%p4340 bra BB0_399;
GPGPU-Sim PTX:    immediate post dominator      @  PC=0x71f0 (main.1.sm_70.ptx:4479) shfl.sync.idx.b32 %r912|%p629, %r8877, %r6036, %r6066, %r6067;
GPGPU-Sim PTX: 201 (potential) branch divergence @  PC=0x7210 (main.1.sm_70.ptx:4483) @%p4340 bra BB0_401;
GPGPU-Sim PTX:    immediate post dominator      @  PC=0x7278 (main.1.sm_70.ptx:4499) shfl.sync.idx.b32 %r916|%p633, %r8877, %r6046, %r6066, %r6067;
GPGPU-Sim PTX: 202 (potential) branch divergence @  PC=0x7298 (main.1.sm_70.ptx:4503) @%p4340 bra BB0_403;
GPGPU-Sim PTX:    immediate post dominator      @  PC=0x7300 (main.1.sm_70.ptx:4519) shfl.sync.idx.b32 %r920|%p637, %r8877, %r6037, %r6066, %r6067;
GPGPU-Sim PTX: 203 (potential) branch divergence @  PC=0x7320 (main.1.sm_70.ptx:4523) @%p4340 bra BB0_405;
GPGPU-Sim PTX:    immediate post dominator      @  PC=0x7388 (main.1.sm_70.ptx:4539) add.s32 %r24789, %r24789, 1;
GPGPU-Sim PTX: 204 (potential) branch divergence @  PC=0x7398 (main.1.sm_70.ptx:4541) @%p4344 bra BB0_397;
GPGPU-Sim PTX:    immediate post dominator      @  PC=0x73a0 (main.1.sm_70.ptx:4543) xor.b32 %r8940, %r6028, 40;
GPGPU-Sim PTX: 205 (potential) branch divergence @  PC=0x7428 (main.1.sm_70.ptx:4562) @%p4346 bra BB0_409;
GPGPU-Sim PTX:    immediate post dominator      @  PC=0x7490 (main.1.sm_70.ptx:4578) shfl.sync.idx.b32 %r935|%p645, %r8949, %r6036, %r6066, %r6067;
GPGPU-Sim PTX: 206 (potential) branch divergence @  PC=0x74b0 (main.1.sm_70.ptx:4582) @%p4346 bra BB0_411;
GPGPU-Sim PTX:    immediate post dominator      @  PC=0x7518 (main.1.sm_70.ptx:4598) shfl.sync.idx.b32 %r939|%p649, %r8949, %r6046, %r6066, %r6067;
GPGPU-Sim PTX: 207 (potential) branch divergence @  PC=0x7538 (main.1.sm_70.ptx:4602) @%p4346 bra BB0_413;
GPGPU-Sim PTX:    immediate post dominator      @  PC=0x75a0 (main.1.sm_70.ptx:4618) shfl.sync.idx.b32 %r943|%p653, %r8949, %r6037, %r6066, %r6067;
GPGPU-Sim PTX: 208 (potential) branch divergence @  PC=0x75c0 (main.1.sm_70.ptx:4622) @%p4346 bra BB0_415;
GPGPU-Sim PTX:    immediate post dominator      @  PC=0x7628 (main.1.sm_70.ptx:4638) add.s32 %r24790, %r24790, 1;
GPGPU-Sim PTX: 209 (potential) branch divergence @  PC=0x7638 (main.1.sm_70.ptx:4640) @%p4350 bra BB0_407;
GPGPU-Sim PTX:    immediate post dominator      @  PC=0x7640 (main.1.sm_70.ptx:4642) xor.b32 %r9012, %r6028, 41;
GPGPU-Sim PTX: 210 (potential) branch divergence @  PC=0x76c8 (main.1.sm_70.ptx:4661) @%p4352 bra BB0_419;
GPGPU-Sim PTX:    immediate post dominator      @  PC=0x7730 (main.1.sm_70.ptx:4677) shfl.sync.idx.b32 %r958|%p661, %r9021, %r6036, %r6066, %r6067;
GPGPU-Sim PTX: 211 (potential) branch divergence @  PC=0x7750 (main.1.sm_70.ptx:4681) @%p4352 bra BB0_421;
GPGPU-Sim PTX:    immediate post dominator      @  PC=0x77b8 (main.1.sm_70.ptx:4697) shfl.sync.idx.b32 %r962|%p665, %r9021, %r6046, %r6066, %r6067;
GPGPU-Sim PTX: 212 (potential) branch divergence @  PC=0x77d8 (main.1.sm_70.ptx:4701) @%p4352 bra BB0_423;
GPGPU-Sim PTX:    immediate post dominator      @  PC=0x7840 (main.1.sm_70.ptx:4717) shfl.sync.idx.b32 %r966|%p669, %r9021, %r6037, %r6066, %r6067;
GPGPU-Sim PTX: 213 (potential) branch divergence @  PC=0x7860 (main.1.sm_70.ptx:4721) @%p4352 bra BB0_425;
GPGPU-Sim PTX:    immediate post dominator      @  PC=0x78c8 (main.1.sm_70.ptx:4737) add.s32 %r24791, %r24791, 1;
GPGPU-Sim PTX: 214 (potential) branch divergence @  PC=0x78d8 (main.1.sm_70.ptx:4739) @%p4356 bra BB0_417;
GPGPU-Sim PTX:    immediate post dominator      @  PC=0x78e0 (main.1.sm_70.ptx:4741) xor.b32 %r9084, %r6028, 42;
GPGPU-Sim PTX: 215 (potential) branch divergence @  PC=0x7968 (main.1.sm_70.ptx:4760) @%p4358 bra BB0_429;
GPGPU-Sim PTX:    immediate post dominator      @  PC=0x79d0 (main.1.sm_70.ptx:4776) shfl.sync.idx.b32 %r981|%p677, %r9093, %r6036, %r6066, %r6067;
GPGPU-Sim PTX: 216 (potential) branch divergence @  PC=0x79f0 (main.1.sm_70.ptx:4780) @%p4358 bra BB0_431;
GPGPU-Sim PTX:    immediate post dominator      @  PC=0x7a58 (main.1.sm_70.ptx:4796) shfl.sync.idx.b32 %r985|%p681, %r9093, %r6046, %r6066, %r6067;
GPGPU-Sim PTX: 217 (potential) branch divergence @  PC=0x7a78 (main.1.sm_70.ptx:4800) @%p4358 bra BB0_433;
[...]
bk0: 64a 3407493i bk1: 64a 3407491i bk2: 64a 3407493i bk3: 64a 3407491i bk4: 64a 3407493i bk5: 64a 3407491i bk6: 64a 3407493i bk7: 64a 3407491i bk8: 64a 3407493i bk9: 64a 3407491i bk10: 0a 3407563i bk11: 0a 3407563i bk12: 0a 3407563i bk13: 0a 3407563i bk14: 0a 3407563i bk15: 0a 3407563i 

------------------------------------------------------------------------

Row_Buffer_Locality = 0.984375
Row_Buffer_Locality_read = 0.984375
Row_Buffer_Locality_write = -nan
Bank_Level_Parallism = 1.000000
Bank_Level_Parallism_Col = 1.000000
Bank_Level_Parallism_Ready = 1.000000
write_to_read_ratio_blp_rw_average = 0.000000
GrpLevelPara = 1.000000 

BW Util details:
bwutil = 0.000188 
total_CMD = 3407563 
util_bw = 640 
Wasted_Col = 710 
Wasted_Row = 0 
Idle = 3406213 

BW Util Bottlenecks: 
RCDc_limit = 120 
RCDWRc_limit = 0 
WTRc_limit = 0 
RTWc_limit = 0 
CCDLc_limit = 590 
rwq = 0 
CCDLc_limit_alone = 590 
WTRc_limit_alone = 0 
RTWc_limit_alone = 0 

Commands details: 
total_CMD = 3407563 
n_nop = 3406913 
Read = 640 
Write = 0 
L2_Alloc = 0 
L2_WB = 0 
n_act = 10 
n_pre = 0 
n_ref = 0 
n_req = 640 
total_req = 640 

Dual Bus Interface Util: 
issued_total_row = 10 
issued_total_col = 640 
Row_Bus_Util =  0.000003 
CoL_Bus_Util = 0.000188 
Either_Row_CoL_Bus_Util = 0.000191 
Issued_on_Two_Bus_Simul_Util = 0.000000 
issued_two_Eff = 0.000000 
queue_avg = 0.001720 


dram_util_bins: 0 0 0 0 0 0 0 0 0 0
dram_eff_bins: 0 0 0 0 0 0 0 0 0 0
mrqq: max=13 avg=0.0017197
Memory Partition 29: 
Cache L2_bank_058:
MSHR contents

Cache L2_bank_059:
MSHR contents

In Dram Latency Queue (total = 0): 
DRAM[29]: 16 bks, busW=16 BL=2 CL=12, tRRD=3 tCCD=1, tRCD=12 tRAS=28 tRP=12 tRC=40
n_cmd=3407563 n_nop=3406913 n_act=10 n_pre=0 n_ref_event=0 n_req=640 n_rd=640 n_rd_L2_A=0 n_write=0 n_wr_bk=0 bw_util=0.0001878
n_activity=1840 dram_eff=0.3478
bk0: 64a 3407492i bk1: 64a 3407491i bk2: 64a 3407492i bk3: 64a 3407491i bk4: 64a 3407492i bk5: 64a 3407491i bk6: 64a 3407492i bk7: 64a 3407491i bk8: 64a 3407492i bk9: 64a 3407491i bk10: 0a 3407563i bk11: 0a 3407563i bk12: 0a 3407563i bk13: 0a 3407563i bk14: 0a 3407563i bk15: 0a 3407563i 

------------------------------------------------------------------------

Row_Buffer_Locality = 0.984375
Row_Buffer_Locality_read = 0.984375
Row_Buffer_Locality_write = -nan
Bank_Level_Parallism = 1.000000
Bank_Level_Parallism_Col = 1.000000
Bank_Level_Parallism_Ready = 1.000000
write_to_read_ratio_blp_rw_average = 0.000000
GrpLevelPara = 1.000000 

BW Util details:
bwutil = 0.000188 
total_CMD = 3407563 
util_bw = 640 
Wasted_Col = 715 
Wasted_Row = 0 
Idle = 3406208 

BW Util Bottlenecks: 
RCDc_limit = 120 
RCDWRc_limit = 0 
WTRc_limit = 0 
RTWc_limit = 0 
CCDLc_limit = 595 
rwq = 0 
CCDLc_limit_alone = 595 
WTRc_limit_alone = 0 
RTWc_limit_alone = 0 

Commands details: 
total_CMD = 3407563 
n_nop = 3406913 
Read = 640 
Write = 0 
L2_Alloc = 0 
L2_WB = 0 
n_act = 10 
n_pre = 0 
n_ref = 0 
n_req = 640 
total_req = 640 

Dual Bus Interface Util: 
issued_total_row = 10 
issued_total_col = 640 
Row_Bus_Util =  0.000003 
CoL_Bus_Util = 0.000188 
Either_Row_CoL_Bus_Util = 0.000191 
Issued_on_Two_Bus_Simul_Util = 0.000000 
issued_two_Eff = 0.000000 
queue_avg = 0.001677 


dram_util_bins: 0 0 0 0 0 0 0 0 0 0
dram_eff_bins: 0 0 0 0 0 0 0 0 0 0
mrqq: max=13 avg=0.00167715
Memory Partition 30: 
Cache L2_bank_060:
MSHR contents

Cache L2_bank_061:
MSHR contents

In Dram Latency Queue (total = 0): 
DRAM[30]: 16 bks, busW=16 BL=2 CL=12, tRRD=3 tCCD=1, tRCD=12 tRAS=28 tRP=12 tRC=40
n_cmd=3407563 n_nop=3406913 n_act=10 n_pre=0 n_ref_event=0 n_req=640 n_rd=640 n_rd_L2_A=0 n_write=0 n_wr_bk=0 bw_util=0.0001878
n_activity=1840 dram_eff=0.3478
bk0: 64a 3407491i bk1: 64a 3407491i bk2: 64a 3407491i bk3: 64a 3407491i bk4: 64a 3407491i bk5: 64a 3407491i bk6: 64a 3407491i bk7: 64a 3407491i bk8: 64a 3407491i bk9: 64a 3407491i bk10: 0a 3407563i bk11: 0a 3407563i bk12: 0a 3407563i bk13: 0a 3407563i bk14: 0a 3407563i bk15: 0a 3407563i 

------------------------------------------------------------------------

Row_Buffer_Locality = 0.984375
Row_Buffer_Locality_read = 0.984375
Row_Buffer_Locality_write = -nan
Bank_Level_Parallism = 1.000000
Bank_Level_Parallism_Col = 1.000000
Bank_Level_Parallism_Ready = 1.000000
write_to_read_ratio_blp_rw_average = 0.000000
GrpLevelPara = 1.000000 

BW Util details:
bwutil = 0.000188 
total_CMD = 3407563 
util_bw = 640 
Wasted_Col = 720 
Wasted_Row = 0 
Idle = 3406203 

BW Util Bottlenecks: 
RCDc_limit = 120 
RCDWRc_limit = 0 
WTRc_limit = 0 
RTWc_limit = 0 
CCDLc_limit = 600 
rwq = 0 
CCDLc_limit_alone = 600 
WTRc_limit_alone = 0 
RTWc_limit_alone = 0 

Commands details: 
total_CMD = 3407563 
n_nop = 3406913 
Read = 640 
Write = 0 
L2_Alloc = 0 
L2_WB = 0 
n_act = 10 
n_pre = 0 
n_ref = 0 
n_req = 640 
total_req = 640 

Dual Bus Interface Util: 
issued_total_row = 10 
issued_total_col = 640 
Row_Bus_Util =  0.000003 
CoL_Bus_Util = 0.000188 
Either_Row_CoL_Bus_Util = 0.000191 
Issued_on_Two_Bus_Simul_Util = 0.000000 
issued_two_Eff = 0.000000 
queue_avg = 0.001720 


dram_util_bins: 0 0 0 0 0 0 0 0 0 0
dram_eff_bins: 0 0 0 0 0 0 0 0 0 0
mrqq: max=13 avg=0.0017197
Memory Partition 31: 
Cache L2_bank_062:
MSHR contents

Cache L2_bank_063:
MSHR contents

In Dram Latency Queue (total = 0): 
DRAM[31]: 16 bks, busW=16 BL=2 CL=12, tRRD=3 tCCD=1, tRCD=12 tRAS=28 tRP=12 tRC=40
n_cmd=3407563 n_nop=3406913 n_act=10 n_pre=0 n_ref_event=0 n_req=640 n_rd=640 n_rd_L2_A=0 n_write=0 n_wr_bk=0 bw_util=0.0001878
n_activity=1840 dram_eff=0.3478
bk0: 64a 3407491i bk1: 64a 3407491i bk2: 64a 3407491i bk3: 64a 3407491i bk4: 64a 3407491i bk5: 64a 3407491i bk6: 64a 3407491i bk7: 64a 3407491i bk8: 64a 3407491i bk9: 64a 3407491i bk10: 0a 3407563i bk11: 0a 3407563i bk12: 0a 3407563i bk13: 0a 3407563i bk14: 0a 3407563i bk15: 0a 3407563i 

------------------------------------------------------------------------

Row_Buffer_Locality = 0.984375
Row_Buffer_Locality_read = 0.984375
Row_Buffer_Locality_write = -nan
Bank_Level_Parallism = 1.000000
Bank_Level_Parallism_Col = 1.000000
Bank_Level_Parallism_Ready = 1.000000
write_to_read_ratio_blp_rw_average = 0.000000
GrpLevelPara = 1.000000 

BW Util details:
bwutil = 0.000188 
total_CMD = 3407563 
util_bw = 640 
Wasted_Col = 720 
Wasted_Row = 0 
Idle = 3406203 

BW Util Bottlenecks: 
RCDc_limit = 120 
RCDWRc_limit = 0 
WTRc_limit = 0 
RTWc_limit = 0 
CCDLc_limit = 600 
rwq = 0 
CCDLc_limit_alone = 600 
WTRc_limit_alone = 0 
RTWc_limit_alone = 0 

Commands details: 
total_CMD = 3407563 
n_nop = 3406913 
Read = 640 
Write = 0 
L2_Alloc = 0 
L2_WB = 0 
n_act = 10 
n_pre = 0 
n_ref = 0 
n_req = 640 
total_req = 640 

Dual Bus Interface Util: 
issued_total_row = 10 
issued_total_col = 640 
Row_Bus_Util =  0.000003 
CoL_Bus_Util = 0.000188 
Either_Row_CoL_Bus_Util = 0.000191 
Issued_on_Two_Bus_Simul_Util = 0.000000 
issued_two_Eff = 0.000000 
queue_avg = 0.001761 


dram_util_bins: 0 0 0 0 0 0 0 0 0 0
dram_eff_bins: 0 0 0 0 0 0 0 0 0 0
mrqq: max=13 avg=0.00176079

========= L2 cache stats =========
L2_cache_bank[0]: Access = 416, Miss = 320, Miss_rate = 0.769, Pending_hits = 0, Reservation_fails = 0
L2_cache_bank[1]: Access = 320, Miss = 320, Miss_rate = 1.000, Pending_hits = 0, Reservation_fails = 0
L2_cache_bank[2]: Access = 320, Miss = 320, Miss_rate = 1.000, Pending_hits = 0, Reservation_fails = 0
L2_cache_bank[3]: Access = 320, Miss = 320, Miss_rate = 1.000, Pending_hits = 0, Reservation_fails = 0
L2_cache_bank[4]: Access = 400, Miss = 400, Miss_rate = 1.000, Pending_hits = 0, Reservation_fails = 0
L2_cache_bank[5]: Access = 320, Miss = 320, Miss_rate = 1.000, Pending_hits = 0, Reservation_fails = 0
L2_cache_bank[6]: Access = 320, Miss = 320, Miss_rate = 1.000, Pending_hits = 0, Reservation_fails = 0
L2_cache_bank[7]: Access = 320, Miss = 320, Miss_rate = 1.000, Pending_hits = 0, Reservation_fails = 0
L2_cache_bank[8]: Access = 320, Miss = 320, Miss_rate = 1.000, Pending_hits = 0, Reservation_fails = 0
L2_cache_bank[9]: Access = 320, Miss = 320, Miss_rate = 1.000, Pending_hits = 0, Reservation_fails = 0
L2_cache_bank[10]: Access = 320, Miss = 320, Miss_rate = 1.000, Pending_hits = 0, Reservation_fails = 0
L2_cache_bank[11]: Access = 320, Miss = 320, Miss_rate = 1.000, Pending_hits = 0, Reservation_fails = 0
L2_cache_bank[12]: Access = 320, Miss = 320, Miss_rate = 1.000, Pending_hits = 0, Reservation_fails = 0
L2_cache_bank[13]: Access = 320, Miss = 320, Miss_rate = 1.000, Pending_hits = 0, Reservation_fails = 0
L2_cache_bank[14]: Access = 320, Miss = 320, Miss_rate = 1.000, Pending_hits = 0, Reservation_fails = 0
L2_cache_bank[15]: Access = 320, Miss = 320, Miss_rate = 1.000, Pending_hits = 0, Reservation_fails = 0
L2_cache_bank[16]: Access = 320, Miss = 320, Miss_rate = 1.000, Pending_hits = 0, Reservation_fails = 0
L2_cache_bank[17]: Access = 320, Miss = 320, Miss_rate = 1.000, Pending_hits = 0, Reservation_fails = 0
L2_cache_bank[18]: Access = 320, Miss = 320, Miss_rate = 1.000, Pending_hits = 0, Reservation_fails = 0
L2_cache_bank[19]: Access = 320, Miss = 320, Miss_rate = 1.000, Pending_hits = 0, Reservation_fails = 0
L2_cache_bank[20]: Access = 320, Miss = 320, Miss_rate = 1.000, Pending_hits = 0, Reservation_fails = 0
L2_cache_bank[21]: Access = 320, Miss = 320, Miss_rate = 1.000, Pending_hits = 0, Reservation_fails = 0
L2_cache_bank[22]: Access = 320, Miss = 320, Miss_rate = 1.000, Pending_hits = 0, Reservation_fails = 0
L2_cache_bank[23]: Access = 320, Miss = 320, Miss_rate = 1.000, Pending_hits = 0, Reservation_fails = 0
L2_cache_bank[24]: Access = 320, Miss = 320, Miss_rate = 1.000, Pending_hits = 0, Reservation_fails = 0
L2_cache_bank[25]: Access = 320, Miss = 320, Miss_rate = 1.000, Pending_hits = 0, Reservation_fails = 0
L2_cache_bank[26]: Access = 320, Miss = 320, Miss_rate = 1.000, Pending_hits = 0, Reservation_fails = 0
L2_cache_bank[27]: Access = 320, Miss = 320, Miss_rate = 1.000, Pending_hits = 0, Reservation_fails = 0
L2_cache_bank[28]: Access = 320, Miss = 320, Miss_rate = 1.000, Pending_hits = 0, Reservation_fails = 0
L2_cache_bank[29]: Access = 320, Miss = 320, Miss_rate = 1.000, Pending_hits = 0, Reservation_fails = 0
L2_cache_bank[30]: Access = 320, Miss = 320, Miss_rate = 1.000, Pending_hits = 0, Reservation_fails = 0
L2_cache_bank[31]: Access = 320, Miss = 320, Miss_rate = 1.000, Pending_hits = 0, Reservation_fails = 0
L2_cache_bank[32]: Access = 320, Miss = 320, Miss_rate = 1.000, Pending_hits = 0, Reservation_fails = 0
L2_cache_bank[33]: Access = 320, Miss = 320, Miss_rate = 1.000, Pending_hits = 0, Reservation_fails = 0
L2_cache_bank[34]: Access = 320, Miss = 320, Miss_rate = 1.000, Pending_hits = 0, Reservation_fails = 0
L2_cache_bank[35]: Access = 320, Miss = 320, Miss_rate = 1.000, Pending_hits = 0, Reservation_fails = 0
L2_cache_bank[36]: Access = 320, Miss = 320, Miss_rate = 1.000, Pending_hits = 0, Reservation_fails = 0
L2_cache_bank[37]: Access = 320, Miss = 320, Miss_rate = 1.000, Pending_hits = 0, Reservation_fails = 0
L2_cache_bank[38]: Access = 320, Miss = 320, Miss_rate = 1.000, Pending_hits = 0, Reservation_fails = 0
L2_cache_bank[39]: Access = 320, Miss = 320, Miss_rate = 1.000, Pending_hits = 0, Reservation_fails = 0
L2_cache_bank[40]: Access = 320, Miss = 320, Miss_rate = 1.000, Pending_hits = 0, Reservation_fails = 0
L2_cache_bank[41]: Access = 320, Miss = 320, Miss_rate = 1.000, Pending_hits = 0, Reservation_fails = 0
L2_cache_bank[42]: Access = 320, Miss = 320, Miss_rate = 1.000, Pending_hits = 0, Reservation_fails = 0
L2_cache_bank[43]: Access = 320, Miss = 320, Miss_rate = 1.000, Pending_hits = 0, Reservation_fails = 0
L2_cache_bank[44]: Access = 320, Miss = 320, Miss_rate = 1.000, Pending_hits = 0, Reservation_fails = 0
L2_cache_bank[45]: Access = 320, Miss = 320, Miss_rate = 1.000, Pending_hits = 0, Reservation_fails = 0
L2_cache_bank[46]: Access = 320, Miss = 320, Miss_rate = 1.000, Pending_hits = 0, Reservation_fails = 0
L2_cache_bank[47]: Access = 320, Miss = 320, Miss_rate = 1.000, Pending_hits = 0, Reservation_fails = 0
L2_cache_bank[48]: Access = 320, Miss = 320, Miss_rate = 1.000, Pending_hits = 0, Reservation_fails = 0
L2_cache_bank[49]: Access = 320, Miss = 320, Miss_rate = 1.000, Pending_hits = 0, Reservation_fails = 0
L2_cache_bank[50]: Access = 320, Miss = 320, Miss_rate = 1.000, Pending_hits = 0, Reservation_fails = 0
L2_cache_bank[51]: Access = 320, Miss = 320, Miss_rate = 1.000, Pending_hits = 0, Reservation_fails = 0
L2_cache_bank[52]: Access = 320, Miss = 320, Miss_rate = 1.000, Pending_hits = 0, Reservation_fails = 0
L2_cache_bank[53]: Access = 320, Miss = 320, Miss_rate = 1.000, Pending_hits = 0, Reservation_fails = 0
L2_cache_bank[54]: Access = 320, Miss = 320, Miss_rate = 1.000, Pending_hits = 0, Reservation_fails = 0
L2_cache_bank[55]: Access = 320, Miss = 320, Miss_rate = 1.000, Pending_hits = 0, Reservation_fails = 0
L2_cache_bank[56]: Access = 320, Miss = 320, Miss_rate = 1.000, Pending_hits = 0, Reservation_fails = 0
L2_cache_bank[57]: Access = 320, Miss = 320, Miss_rate = 1.000, Pending_hits = 0, Reservation_fails = 0
L2_cache_bank[58]: Access = 320, Miss = 320, Miss_rate = 1.000, Pending_hits = 0, Reservation_fails = 0
L2_cache_bank[59]: Access = 320, Miss = 320, Miss_rate = 1.000, Pending_hits = 0, Reservation_fails = 0
L2_cache_bank[60]: Access = 320, Miss = 320, Miss_rate = 1.000, Pending_hits = 0, Reservation_fails = 0
L2_cache_bank[61]: Access = 320, Miss = 320, Miss_rate = 1.000, Pending_hits = 0, Reservation_fails = 0
L2_cache_bank[62]: Access = 320, Miss = 320, Miss_rate = 1.000, Pending_hits = 0, Reservation_fails = 0
L2_cache_bank[63]: Access = 320, Miss = 320, Miss_rate = 1.000, Pending_hits = 0, Reservation_fails = 0
L2_total_cache_accesses = 20656
L2_total_cache_misses = 20560
L2_total_cache_miss_rate = 0.9954
L2_total_cache_pending_hits = 0
L2_total_cache_reservation_fails = 0
L2_total_cache_breakdown:
	L2_cache_stats_breakdown[GLOBAL_ACC_R][HIT] = 96
	L2_cache_stats_breakdown[GLOBAL_ACC_R][HIT_RESERVED] = 0
	L2_cache_stats_breakdown[GLOBAL_ACC_R][MISS] = 5120
	L2_cache_stats_breakdown[GLOBAL_ACC_R][RESERVATION_FAIL] = 0
	L2_cache_stats_breakdown[GLOBAL_ACC_R][SECTOR_MISS] = 15360
	L2_cache_stats_breakdown[LOCAL_ACC_R][HIT] = 0
	L2_cache_stats_breakdown[LOCAL_ACC_R][HIT_RESERVED] = 0
	L2_cache_stats_breakdown[LOCAL_ACC_R][MISS] = 0
	L2_cache_stats_breakdown[LOCAL_ACC_R][RESERVATION_FAIL] = 0
	L2_cache_stats_breakdown[LOCAL_ACC_R][SECTOR_MISS] = 0
	L2_cache_stats_breakdown[CONST_ACC_R][HIT] = 0
	L2_cache_stats_breakdown[CONST_ACC_R][HIT_RESERVED] = 0
	L2_cache_stats_breakdown[CONST_ACC_R][MISS] = 0
	L2_cache_stats_breakdown[CONST_ACC_R][RESERVATION_FAIL] = 0
	L2_cache_stats_breakdown[CONST_ACC_R][SECTOR_MISS] = 0
	L2_cache_stats_breakdown[TEXTURE_ACC_R][HIT] = 0
	L2_cache_stats_breakdown[TEXTURE_ACC_R][HIT_RESERVED] = 0
	L2_cache_stats_breakdown[TEXTURE_ACC_R][MISS] = 0
	L2_cache_stats_breakdown[TEXTURE_ACC_R][RESERVATION_FAIL] = 0
	L2_cache_stats_breakdown[TEXTURE_ACC_R][SECTOR_MISS] = 0
	L2_cache_stats_breakdown[GLOBAL_ACC_W][HIT] = 0
	L2_cache_stats_breakdown[GLOBAL_ACC_W][HIT_RESERVED] = 0
	L2_cache_stats_breakdown[GLOBAL_ACC_W][MISS] = 1
	L2_cache_stats_breakdown[GLOBAL_ACC_W][RESERVATION_FAIL] = 0
	L2_cache_stats_breakdown[GLOBAL_ACC_W][SECTOR_MISS] = 79
	L2_cache_stats_breakdown[LOCAL_ACC_W][HIT] = 0
	L2_cache_stats_breakdown[LOCAL_ACC_W][HIT_RESERVED] = 0
	L2_cache_stats_breakdown[LOCAL_ACC_W][MISS] = 0
	L2_cache_stats_breakdown[LOCAL_ACC_W][RESERVATION_FAIL] = 0
	L2_cache_stats_breakdown[LOCAL_ACC_W][SECTOR_MISS] = 0
	L2_cache_stats_breakdown[L1_WRBK_ACC][HIT] = 0
	L2_cache_stats_breakdown[L1_WRBK_ACC][HIT_RESERVED] = 0
	L2_cache_stats_breakdown[L1_WRBK_ACC][MISS] = 0
	L2_cache_stats_breakdown[L1_WRBK_ACC][RESERVATION_FAIL] = 0
	L2_cache_stats_breakdown[L1_WRBK_ACC][SECTOR_MISS] = 0
	L2_cache_stats_breakdown[L2_WRBK_ACC][HIT] = 0
	L2_cache_stats_breakdown[L2_WRBK_ACC][HIT_RESERVED] = 0
	L2_cache_stats_breakdown[L2_WRBK_ACC][MISS] = 0
	L2_cache_stats_breakdown[L2_WRBK_ACC][RESERVATION_FAIL] = 0
	L2_cache_stats_breakdown[L2_WRBK_ACC][SECTOR_MISS] = 0
	L2_cache_stats_breakdown[INST_ACC_R][HIT] = 0
	L2_cache_stats_breakdown[INST_ACC_R][HIT_RESERVED] = 0
	L2_cache_stats_breakdown[INST_ACC_R][MISS] = 0
	L2_cache_stats_breakdown[INST_ACC_R][RESERVATION_FAIL] = 0
	L2_cache_stats_breakdown[INST_ACC_R][SECTOR_MISS] = 0
	L2_cache_stats_breakdown[L1_WR_ALLOC_R][HIT] = 0
	L2_cache_stats_breakdown[L1_WR_ALLOC_R][HIT_RESERVED] = 0
	L2_cache_stats_breakdown[L1_WR_ALLOC_R][MISS] = 0
	L2_cache_stats_breakdown[L1_WR_ALLOC_R][RESERVATION_FAIL] = 0
	L2_cache_stats_breakdown[L1_WR_ALLOC_R][SECTOR_MISS] = 0
	L2_cache_stats_breakdown[L2_WR_ALLOC_R][HIT] = 0
	L2_cache_stats_breakdown[L2_WR_ALLOC_R][HIT_RESERVED] = 0
	L2_cache_stats_breakdown[L2_WR_ALLOC_R][MISS] = 0
	L2_cache_stats_breakdown[L2_WR_ALLOC_R][RESERVATION_FAIL] = 0
	L2_cache_stats_breakdown[L2_WR_ALLOC_R][SECTOR_MISS] = 0
	L2_cache_stats_breakdown[GLOBAL_ACC_R][TOTAL_ACCESS] = 20576
	L2_cache_stats_breakdown[GLOBAL_ACC_W][TOTAL_ACCESS] = 80
L2_total_cache_reservation_fail_breakdown:
L2_cache_data_port_util = 0.000
L2_cache_fill_port_util = 0.000

icnt_total_pkts_mem_to_simt=20656
icnt_total_pkts_simt_to_mem=20656
LD_mem_lat_dist  0 0 0 0 0 0 0 0 0 0 0 0 0 0 0 0 0 0 0 0 0 0 0 0 0 0 0
ST_mem_lat_dist  0 0 0 0 0 0 0 0 0 0 0 0 0 0 0 0 0 0 0 0 0 0 0 0 0 0 0
----------------------------Interconnect-DETAILS--------------------------------
Req_Network_injected_packets_num = 20656
Req_Network_cycles = 4538078
Req_Network_injected_packets_per_cycle =       0.0046 
Req_Network_conflicts_per_cycle =       0.0101
Req_Network_conflicts_per_cycle_util =       2.7372
Req_Bank_Level_Parallism =       1.2342
Req_Network_in_buffer_full_per_cycle =       0.0000
Req_Network_in_buffer_avg_util =       0.0154
Req_Network_out_buffer_full_per_cycle =       0.0000
Req_Network_out_buffer_avg_util =       0.0001

Reply_Network_injected_packets_num = 20656
Reply_Network_cycles = 4538078
Reply_Network_injected_packets_per_cycle =        0.0046
Reply_Network_conflicts_per_cycle =        0.0000
Reply_Network_conflicts_per_cycle_util =       0.0124
Reply_Bank_Level_Parallism =       1.7105
Reply_Network_in_buffer_full_per_cycle =       0.0000
Reply_Network_in_buffer_avg_util =       0.0000
Reply_Network_out_buffer_full_per_cycle =       0.0000
Reply_Network_out_buffer_avg_util =       0.0001
----------------------------END-of-Interconnect-DETAILS-------------------------


gpgpu_simulation_time = 0 days, 3 hrs, 21 min, 47 sec (12107 sec)
gpgpu_simulation_rate = 49853 (inst/sec)
gpgpu_simulation_rate = 374 (cycle/sec)
gpgpu_silicon_slowdown = 3026737x
GPGPU-Sim: detected inactive GPU simulation thread
GPGPU-Sim PTX: Setting up arguments for 4 bytes starting at 0x7ffcdbdccecc..
GPGPU-Sim PTX: Setting up arguments for 8 bytes starting at 0x7ffcdbdccec0..
GPGPU-Sim PTX: Setting up arguments for 8 bytes starting at 0x7ffcdbdcceb8..
GPGPU-Sim PTX: Setting up arguments for 8 bytes starting at 0x7ffcdbdcceb0..
GPGPU-Sim PTX: Setting up arguments for 4 bytes starting at 0x7ffcdbdccec8..

GPGPU-Sim PTX: cudaLaunch for 0x0x4123e6 (mode=performance simulation) on stream 1
GPGPU-Sim PTX: PDOM analysis already done for _Z25ethash_calculate_dag_itemjP8hash64_tmS0_j 
GPGPU-Sim PTX: pushing kernel '_Z25ethash_calculate_dag_itemjP8hash64_tmS0_j' to stream 1, gridDim= (4,1,1) blockDim = (256,1,1) 
GPGPU-Sim: synchronize waiting for inactive GPU simulation
GPGPU-Sim API: Stream Manager State
GPGPU-Sim API:    stream 1 has 1 operations
GPGPU-Sim API:       0 :  stream operation kernel
GPGPU-Sim uArch: Shader 40 bind to kernel 11 '_Z25ethash_calculate_dag_itemjP8hash64_tmS0_j'
GPGPU-Sim: Reconfigure L1 cache to 128KB
GPGPU-Sim uArch: Shader 41 bind to kernel 11 '_Z25ethash_calculate_dag_itemjP8hash64_tmS0_j'
GPGPU-Sim uArch: Shader 42 bind to kernel 11 '_Z25ethash_calculate_dag_itemjP8hash64_tmS0_j'
GPGPU-Sim uArch: Shader 43 bind to kernel 11 '_Z25ethash_calculate_dag_itemjP8hash64_tmS0_j'
