

        *** GPGPU-Sim Simulator Version 4.0.0  [build gpgpu-sim_git-commit-ffe0a1a00e984ecce9bf36e17ab94c4de0de8108_modified_0.0] ***


GPGPU-Sim PTX: simulation mode 0 (can change with PTX_SIM_MODE_FUNC environment variable:
               1=functional simulation only, 0=detailed performance simulator)
GPGPU-Sim PTX: overriding embedded ptx with ptx file (PTX_SIM_USE_PTX_FILE is set)
GPGPU-Sim: Configuration options:

-save_embedded_ptx                      0 # saves ptx files embedded in binary as <n>.ptx
-keep                                   0 # keep intermediate files created by GPGPU-Sim when interfacing with external programs
-gpgpu_ptx_save_converted_ptxplus                    0 # Saved converted ptxplus to a file
-gpgpu_occupancy_sm_number                   70 # The SM number to pass to ptxas when getting register usage for computing GPU occupancy. This parameter is required in the config.
-ptx_opcode_latency_int      4,13,4,5,145,21 # Opcode latencies for integers <ADD,MAX,MUL,MAD,DIV,SHFL>Default 1,1,19,25,145,32
-ptx_opcode_latency_fp          4,13,4,5,39 # Opcode latencies for single precision floating points <ADD,MAX,MUL,MAD,DIV>Default 1,1,1,1,30
-ptx_opcode_latency_dp         8,19,8,8,330 # Opcode latencies for double precision floating points <ADD,MAX,MUL,MAD,DIV>Default 8,8,8,8,335
-ptx_opcode_latency_sfu                  100 # Opcode latencies for SFU instructionsDefault 8
-ptx_opcode_latency_tesnor                   64 # Opcode latencies for Tensor instructionsDefault 64
-ptx_opcode_initiation_int          2,2,2,2,8,4 # Opcode initiation intervals for integers <ADD,MAX,MUL,MAD,DIV,SHFL>Default 1,1,4,4,32,4
-ptx_opcode_initiation_fp            2,2,2,2,4 # Opcode initiation intervals for single precision floating points <ADD,MAX,MUL,MAD,DIV>Default 1,1,1,1,5
-ptx_opcode_initiation_dp          4,4,4,4,130 # Opcode initiation intervals for double precision floating points <ADD,MAX,MUL,MAD,DIV>Default 8,8,8,8,130
-ptx_opcode_initiation_sfu                    8 # Opcode initiation intervals for sfu instructionsDefault 8
-ptx_opcode_initiation_tensor                   64 # Opcode initiation intervals for tensor instructionsDefault 64
-cdp_latency         7200,8000,100,12000,1600 # CDP API latency <cudaStreamCreateWithFlags, cudaGetParameterBufferV2_init_perWarp, cudaGetParameterBufferV2_perKernel, cudaLaunchDeviceV2_init_perWarp, cudaLaunchDevicV2_perKernel>Default 7200,8000,100,12000,1600
-network_mode                           2 # Interconnection network mode
-inter_config_file                   mesh # Interconnection network config file
-icnt_in_buffer_limit                  512 # in_buffer_limit
-icnt_out_buffer_limit                  512 # out_buffer_limit
-icnt_subnets                           2 # subnets
-icnt_arbiter_algo                      1 # arbiter_algo
-icnt_verbose                           0 # inct_verbose
-icnt_grant_cycles                      1 # grant_cycles
-gpgpu_ptx_use_cuobjdump                    1 # Use cuobjdump to extract ptx and sass from binaries
-gpgpu_experimental_lib_support                    0 # Try to extract code from cuda libraries [Broken because of unknown cudaGetExportTable]
-checkpoint_option                      0 #  checkpointing flag (0 = no checkpoint)
-checkpoint_kernel                      1 #  checkpointing during execution of which kernel (1- 1st kernel)
-checkpoint_CTA                         0 #  checkpointing after # of CTA (< less than total CTA)
-resume_option                          0 #  resume flag (0 = no resume)
-resume_kernel                          0 #  Resume from which kernel (1= 1st kernel)
-resume_CTA                             0 #  resume from which CTA 
-checkpoint_CTA_t                       0 #  resume from which CTA 
-checkpoint_insn_Y                      0 #  resume from which CTA 
-gpgpu_ptx_convert_to_ptxplus                    0 # Convert SASS (native ISA) to ptxplus and run ptxplus
-gpgpu_ptx_force_max_capability                   70 # Force maximum compute capability
-gpgpu_ptx_inst_debug_to_file                    0 # Dump executed instructions' debug information to file
-gpgpu_ptx_inst_debug_file       inst_debug.txt # Executed instructions' debug output file
-gpgpu_ptx_inst_debug_thread_uid                    1 # Thread UID for executed instructions' debug output
-gpgpu_n_mem_for_l2wb_pcommit                   32 # number of memory modules (e.g. memory controllers) in gpu
-gpgpu_n_sub_partition_per_mchannel_for_l2wb_pcommit                    2 # number of memory subpartition in each memory module
-gpgpu_dl2_bsize_for_l2wb_pcommit                  128 # default 128 bytes
-gpgpu_simd_model                       1 # 1 = post-dominator
-gpgpu_shader_core_pipeline              2048:32 # shader core pipeline config, i.e., {<nthread>:<warpsize>}
-gpgpu_tex_cache:l1  N:4:128:256,L:R:m:N:L,T:512:8,128:2 # per-shader L1 texture cache  (READ-ONLY) config  {<nsets>:<bsize>:<assoc>,<rep>:<wr>:<alloc>:<wr_alloc>,<mshr>:<N>:<merge>,<mq>:<rf>}
-gpgpu_const_cache:l1 N:128:64:8,L:R:f:N:L,S:2:64,4 # per-shader L1 constant memory cache  (READ-ONLY) config  {<nsets>:<bsize>:<assoc>,<rep>:<wr>:<alloc>:<wr_alloc>,<mshr>:<N>:<merge>,<mq>} 
-gpgpu_cache:il1     N:64:128:16,L:R:f:N:L,S:2:48,4 # shader L1 instruction cache config  {<nsets>:<bsize>:<assoc>,<rep>:<wr>:<alloc>:<wr_alloc>,<mshr>:<N>:<merge>,<mq>} 
-gpgpu_cache:dl1     S:1:128:256,L:L:s:N:L,A:256:8,16:0,32 # per-shader L1 data cache config  {<nsets>:<bsize>:<assoc>,<rep>:<wr>:<alloc>:<wr_alloc>,<mshr>:<N>:<merge>,<mq> | none}
-gpgpu_l1_banks                         4 # The number of L1 cache banks
-gpgpu_l1_banks_byte_interleaving                   32 # l1 banks byte interleaving granularity
-gpgpu_l1_banks_hashing_function                    0 # l1 banks hashing function
-gpgpu_l1_latency                      20 # L1 Hit Latency
-gpgpu_smem_latency                    20 # smem Latency
-gpgpu_cache:dl1PrefL1                 none # per-shader L1 data cache config  {<nsets>:<bsize>:<assoc>,<rep>:<wr>:<alloc>:<wr_alloc>,<mshr>:<N>:<merge>,<mq> | none}
-gpgpu_cache:dl1PrefShared                 none # per-shader L1 data cache config  {<nsets>:<bsize>:<assoc>,<rep>:<wr>:<alloc>:<wr_alloc>,<mshr>:<N>:<merge>,<mq> | none}
-gpgpu_gmem_skip_L1D                    0 # global memory access skip L1D cache (implements -Xptxas -dlcm=cg, default=no skip)
-gpgpu_perfect_mem                      0 # enable perfect memory mode (no cache miss)
-n_regfile_gating_group                    4 # group of lanes that should be read/written together)
-gpgpu_clock_gated_reg_file                    0 # enable clock gated reg file for power calculations
-gpgpu_clock_gated_lanes                    0 # enable clock gated lanes for power calculations
-gpgpu_shader_registers                65536 # Number of registers per shader core. Limits number of concurrent CTAs. (default 8192)
-gpgpu_registers_per_block                65536 # Maximum number of registers per CTA. (default 8192)
-gpgpu_ignore_resources_limitation                    0 # gpgpu_ignore_resources_limitation (default 0)
-gpgpu_shader_cta                      32 # Maximum number of concurrent CTAs in shader (default 8)
-gpgpu_num_cta_barriers                   16 # Maximum number of named barriers per CTA (default 16)
-gpgpu_n_clusters                      80 # number of processing clusters
-gpgpu_n_cores_per_cluster                    1 # number of simd cores per cluster
-gpgpu_n_cluster_ejection_buffer_size                   32 # number of packets in ejection buffer
-gpgpu_n_ldst_response_buffer_size                    2 # number of response packets in ld/st unit ejection buffer
-gpgpu_shmem_per_block                65536 # Size of shared memory per thread block or CTA (default 48kB)
-gpgpu_shmem_size                   98304 # Size of shared memory per shader core (default 16kB)
-gpgpu_adaptive_cache_config            536870913 # adaptive_cache_config
-gpgpu_shmem_sizeDefault                98304 # Size of shared memory per shader core (default 16kB)
-gpgpu_shmem_size_PrefL1                16384 # Size of shared memory per shader core (default 16kB)
-gpgpu_shmem_size_PrefShared                16384 # Size of shared memory per shader core (default 16kB)
-gpgpu_shmem_num_banks                   32 # Number of banks in the shared memory in each shader core (default 16)
-gpgpu_shmem_limited_broadcast                    0 # Limit shared memory to do one broadcast per cycle (default on)
-gpgpu_shmem_warp_parts                    1 # Number of portions a warp is divided into for shared memory bank conflict check 
-gpgpu_mem_unit_ports                    1 # The number of memory transactions allowed per core cycle
-gpgpu_shmem_warp_parts                    1 # Number of portions a warp is divided into for shared memory bank conflict check 
-gpgpu_warpdistro_shader                   -1 # Specify which shader core to collect the warp size distribution from
-gpgpu_warp_issue_shader                    0 # Specify which shader core to collect the warp issue distribution from
-gpgpu_local_mem_map                    1 # Mapping from local memory space address to simulated GPU physical address space (default = enabled)
-gpgpu_num_reg_banks                   16 # Number of register banks (default = 8)
-gpgpu_reg_bank_use_warp_id                    0 # Use warp ID in mapping registers to banks (default = off)
-gpgpu_sub_core_model                    1 # Sub Core Volta/Pascal model (default = off)
-gpgpu_enable_specialized_operand_collector                    0 # enable_specialized_operand_collector
-gpgpu_operand_collector_num_units_sp                    4 # number of collector units (default = 4)
-gpgpu_operand_collector_num_units_dp                    0 # number of collector units (default = 0)
-gpgpu_operand_collector_num_units_sfu                    4 # number of collector units (default = 4)
-gpgpu_operand_collector_num_units_int                    0 # number of collector units (default = 0)
-gpgpu_operand_collector_num_units_tensor_core                    4 # number of collector units (default = 4)
-gpgpu_operand_collector_num_units_mem                    2 # number of collector units (default = 2)
-gpgpu_operand_collector_num_units_gen                    8 # number of collector units (default = 0)
-gpgpu_operand_collector_num_in_ports_sp                    1 # number of collector unit in ports (default = 1)
-gpgpu_operand_collector_num_in_ports_dp                    0 # number of collector unit in ports (default = 0)
-gpgpu_operand_collector_num_in_ports_sfu                    1 # number of collector unit in ports (default = 1)
-gpgpu_operand_collector_num_in_ports_int                    0 # number of collector unit in ports (default = 0)
-gpgpu_operand_collector_num_in_ports_tensor_core                    1 # number of collector unit in ports (default = 1)
-gpgpu_operand_collector_num_in_ports_mem                    1 # number of collector unit in ports (default = 1)
-gpgpu_operand_collector_num_in_ports_gen                    8 # number of collector unit in ports (default = 0)
-gpgpu_operand_collector_num_out_ports_sp                    1 # number of collector unit in ports (default = 1)
-gpgpu_operand_collector_num_out_ports_dp                    0 # number of collector unit in ports (default = 0)
-gpgpu_operand_collector_num_out_ports_sfu                    1 # number of collector unit in ports (default = 1)
-gpgpu_operand_collector_num_out_ports_int                    0 # number of collector unit in ports (default = 0)
-gpgpu_operand_collector_num_out_ports_tensor_core                    1 # number of collector unit in ports (default = 1)
-gpgpu_operand_collector_num_out_ports_mem                    1 # number of collector unit in ports (default = 1)
-gpgpu_operand_collector_num_out_ports_gen                    8 # number of collector unit in ports (default = 0)
-gpgpu_coalesce_arch                   60 # Coalescing arch (GT200 = 13, Fermi = 20)
-gpgpu_num_sched_per_core                    4 # Number of warp schedulers per core
-gpgpu_max_insn_issue_per_warp                    1 # Max number of instructions that can be issued per warp in one cycle by scheduler (either 1 or 2)
-gpgpu_dual_issue_diff_exec_units                    1 # should dual issue use two different execution unit resources (Default = 1)
-gpgpu_simt_core_sim_order                    1 # Select the simulation order of cores in a cluster (0=Fix, 1=Round-Robin)
-gpgpu_pipeline_widths 4,4,4,4,4,4,4,4,4,4,8,4,4 # Pipeline widths ID_OC_SP,ID_OC_DP,ID_OC_INT,ID_OC_SFU,ID_OC_MEM,OC_EX_SP,OC_EX_DP,OC_EX_INT,OC_EX_SFU,OC_EX_MEM,EX_WB,ID_OC_TENSOR_CORE,OC_EX_TENSOR_CORE
-gpgpu_tensor_core_avail                    1 # Tensor Core Available (default=0)
-gpgpu_num_sp_units                     4 # Number of SP units (default=1)
-gpgpu_num_dp_units                     4 # Number of DP units (default=0)
-gpgpu_num_int_units                    4 # Number of INT units (default=0)
-gpgpu_num_sfu_units                    4 # Number of SF units (default=1)
-gpgpu_num_tensor_core_units                    4 # Number of tensor_core units (default=1)
-gpgpu_num_mem_units                    1 # Number if ldst units (default=1) WARNING: not hooked up to anything
-gpgpu_scheduler                      gto # Scheduler configuration: < lrr | gto | two_level_active > If two_level_active:<num_active_warps>:<inner_prioritization>:<outer_prioritization>For complete list of prioritization values see shader.h enum scheduler_prioritization_typeDefault: gto
-gpgpu_concurrent_kernel_sm                    0 # Support concurrent kernels on a SM (default = disabled)
-gpgpu_perfect_inst_const_cache                    1 # perfect inst and const cache mode, so all inst and const hits in the cache(default = disabled)
-gpgpu_inst_fetch_throughput                    4 # the number of fetched intruction per warp each cycle
-gpgpu_reg_file_port_throughput                    2 # the number ports of the register file
-specialized_unit_1         0,4,4,4,4,BRA # specialized unit config {<enabled>,<num_units>:<latency>:<initiation>,<ID_OC_SPEC>:<OC_EX_SPEC>,<NAME>}
-specialized_unit_2         0,4,4,4,4,BRA # specialized unit config {<enabled>,<num_units>:<latency>:<initiation>,<ID_OC_SPEC>:<OC_EX_SPEC>,<NAME>}
-specialized_unit_3         0,4,4,4,4,BRA # specialized unit config {<enabled>,<num_units>:<latency>:<initiation>,<ID_OC_SPEC>:<OC_EX_SPEC>,<NAME>}
-specialized_unit_4         0,4,4,4,4,BRA # specialized unit config {<enabled>,<num_units>:<latency>:<initiation>,<ID_OC_SPEC>:<OC_EX_SPEC>,<NAME>}
-specialized_unit_5         0,4,4,4,4,BRA # specialized unit config {<enabled>,<num_units>:<latency>:<initiation>,<ID_OC_SPEC>:<OC_EX_SPEC>,<NAME>}
-specialized_unit_6         0,4,4,4,4,BRA # specialized unit config {<enabled>,<num_units>:<latency>:<initiation>,<ID_OC_SPEC>:<OC_EX_SPEC>,<NAME>}
-specialized_unit_7         0,4,4,4,4,BRA # specialized unit config {<enabled>,<num_units>:<latency>:<initiation>,<ID_OC_SPEC>:<OC_EX_SPEC>,<NAME>}
-specialized_unit_8         0,4,4,4,4,BRA # specialized unit config {<enabled>,<num_units>:<latency>:<initiation>,<ID_OC_SPEC>:<OC_EX_SPEC>,<NAME>}
-gpgpu_perf_sim_memcpy                    1 # Fill the L2 cache on memcpy
-gpgpu_simple_dram_model                    0 # simple_dram_model with fixed latency and BW
-gpgpu_dram_scheduler                    1 # 0 = fifo, 1 = FR-FCFS (defaul)
-gpgpu_dram_partition_queues          64:64:64:64 # i2$:$2d:d2$:$2i
-l2_ideal                               0 # Use a ideal L2 cache that always hit
-gpgpu_cache:dl2     S:32:128:24,L:B:m:L:P,A:192:4,32:0,32 # unified banked L2 data cache config  {<nsets>:<bsize>:<assoc>,<rep>:<wr>:<alloc>:<wr_alloc>,<mshr>:<N>:<merge>,<mq>}
-gpgpu_cache:dl2_texture_only                    0 # L2 cache used for texture only
-gpgpu_n_mem                           32 # number of memory modules (e.g. memory controllers) in gpu
-gpgpu_n_sub_partition_per_mchannel                    2 # number of memory subpartition in each memory module
-gpgpu_n_mem_per_ctrlr                    1 # number of memory chips per memory controller
-gpgpu_memlatency_stat                   14 # track and display latency statistics 0x2 enables MC, 0x4 enables queue logs
-gpgpu_frfcfs_dram_sched_queue_size                   64 # 0 = unlimited (default); # entries per chip
-gpgpu_dram_return_queue_size                  192 # 0 = unlimited (default); # entries per chip
-gpgpu_dram_buswidth                   16 # default = 4 bytes (8 bytes per cycle at DDR)
-gpgpu_dram_burst_length                    2 # Burst length of each DRAM request (default = 4 data bus cycle)
-dram_data_command_freq_ratio                    2 # Frequency ratio between DRAM data bus and command bus (default = 2 times, i.e. DDR)
-gpgpu_dram_timing_opt nbk=16:CCD=1:RRD=3:RCD=12:RAS=28:RP=12:RC=40: CL=12:WL=2:CDLR=3:WR=10:nbkgrp=4:CCDL=2:RTPL=3 # DRAM timing parameters = {nbk:tCCD:tRRD:tRCD:tRAS:tRP:tRC:CL:WL:tCDLR:tWR:nbkgrp:tCCDL:tRTPL}
-gpgpu_l2_rop_latency                  160 # ROP queue latency (default 85)
-dram_latency                         200 # DRAM latency (default 30)
-dram_write_latency                   600 # DRAM write latency (default 100)
-dram_dual_bus_interface                    1 # dual_bus_interface (default = 0) 
-dram_bnk_indexing_policy                    0 # dram_bnk_indexing_policy (0 = normal indexing, 1 = Xoring with the higher bits) (Default = 0)
-dram_bnkgrp_indexing_policy                    1 # dram_bnkgrp_indexing_policy (0 = take higher bits, 1 = take lower bits) (Default = 0)
-dram_seperate_write_queue_enable                    0 # Seperate_Write_Queue_Enable
-dram_write_queue_size             32:28:16 # Write_Queue_Size
-dram_elimnate_rw_turnaround                    0 # elimnate_rw_turnaround i.e set tWTR and tRTW = 0
-icnt_flit_size                        40 # icnt_flit_size
-gpgpu_mem_addr_mapping dramid@8;00000000.00000000.00000000.00000000.0000RRRR.RRRRRRRR.RBBBCCCB.CCCSSSSS # mapping memory address to dram model {dramid@<start bit>;<memory address map>}
-gpgpu_mem_addr_test                    0 # run sweep test to check address mapping for aliased address
-gpgpu_mem_address_mask                    1 # 0 = old addressing mask, 1 = new addressing mask, 2 = new add. mask + flipped bank sel and chip sel bits
-gpgpu_memory_partition_indexing                    0 # 0 = no indexing, 1 = bitwise xoring, 2 = IPoly, 3 = custom indexing
-gpuwattch_xml_file         gpuwattch.xml # GPUWattch XML file
-power_simulation_enabled                    0 # Turn on power simulator (1=On, 0=Off)
-power_per_cycle_dump                    0 # Dump detailed power output each cycle
-power_trace_enabled                    0 # produce a file for the power trace (1=On, 0=Off)
-power_trace_zlevel                     6 # Compression level of the power trace output log (0=no comp, 9=highest)
-steady_power_levels_enabled                    0 # produce a file for the steady power levels (1=On, 0=Off)
-steady_state_definition                  8:4 # allowed deviation:number of samples
-gpgpu_max_cycle                        0 # terminates gpu simulation early (0 = no limit)
-gpgpu_max_insn                         0 # terminates gpu simulation early (0 = no limit)
-gpgpu_max_cta                          0 # terminates gpu simulation early (0 = no limit)
-gpgpu_max_completed_cta                  256 # terminates gpu simulation early (0 = no limit)
-gpgpu_runtime_stat                   500 # display runtime statistics such as dram utilization {<freq>:<flag>}
-liveness_message_freq                    1 # Minimum number of seconds between simulation liveness messages (0 = always print)
-gpgpu_compute_capability_major                    7 # Major compute capability version number
-gpgpu_compute_capability_minor                    0 # Minor compute capability version number
-gpgpu_flush_l1_cache                    1 # Flush L1 cache at the end of each kernel call
-gpgpu_flush_l2_cache                    0 # Flush L2 cache at the end of each kernel call
-gpgpu_deadlock_detect                    1 # Stop the simulation at deadlock (1=on (default), 0=off)
-gpgpu_ptx_instruction_classification                    0 # if enabled will classify ptx instruction types per kernel (Max 255 kernels now)
-gpgpu_ptx_sim_mode                     0 # Select between Performance (default) or Functional simulation (1)
-gpgpu_clock_domains 1132.0:1132.0:1132.0:850.0 # Clock Domain Frequencies in MhZ {<Core Clock>:<ICNT Clock>:<L2 Clock>:<DRAM Clock>}
-gpgpu_max_concurrent_kernel                    8 # maximum kernels that can run concurrently on GPU
-gpgpu_cflog_interval                    0 # Interval between each snapshot in control flow logger
-visualizer_enabled               e2c96ab854920b9b814ed0b032e65335  /home/pli11/Videos/parboil_benchmark/parboil/benchmarks/spmv/build/nvm_default/spmv
Extracting PTX file and ptxas options    1: spmv.1.sm_70.ptx -arch=sm_70
      0 # Turn on visualizer output (1=On, 0=Off)
-visualizer_outputfile                 NULL # Specifies the output log file for visualizer
-visualizer_zlevel                      6 # Compression level of the visualizer output log (0=no comp, 9=highest)
-gpgpu_stack_size_limit                 1024 # GPU thread stack size
-gpgpu_heap_size_limit              8388608 # GPU malloc heap size 
-gpgpu_runtime_sync_depth_limit                    2 # GPU device runtime synchronize depth
-gpgpu_runtime_pending_launch_count_limit                 2048 # GPU device runtime pending launch count
-trace_enabled                          0 # Turn on traces
-trace_components                    none # comma seperated list of traces to enable. Complete list found in trace_streams.tup. Default none
-trace_sampling_core                    0 # The core which is printed using CORE_DPRINTF. Default 0
-trace_sampling_memory_partition                   -1 # The memory partition which is printed using MEMPART_DPRINTF. Default -1 (i.e. all)
-enable_ptx_file_line_stats                    1 # Turn on PTX source line statistic profiling. (1 = On)
-ptx_line_stats_filename gpgpu_inst_stats.txt # Output file for PTX source line statistics.
-gpgpu_kernel_launch_latency                 5000 # Kernel launch latency in cycles. Default: 0
-gpgpu_cdp_enabled                      0 # Turn on CDP
-gpgpu_TB_launch_latency                    0 # thread block launch latency in cycles. Default: 0
DRAM Timing Options:
nbk                                    16 # number of banks
CCD                                     1 # column to column delay
RRD                                     3 # minimal delay between activation of rows in different banks
RCD                                    12 # row to column delay
RAS                                    28 # time needed to activate row
RP                                     12 # time needed to precharge (deactivate) row
RC                                     40 # row cycle time
CDLR                                    3 # switching from write to read (changes tWTR)
WR                                     10 # last data-in to row precharge
CL                                     12 # CAS latency
WL                                      2 # Write latency
nbkgrp                                  4 # number of bank groups
CCDL                                    2 # column to column delay between accesses to different bank groups
RTPL                                    3 # read to precharge delay between accesses to different bank groups
Total number of memory sub partition = 64
addr_dec_mask[CHIP]  = 0000000000001f00 	high:13 low:8
addr_dec_mask[BK]    = 00000000000e2000 	high:20 low:13
addr_dec_mask[ROW]   = 00000001fff00000 	high:33 low:20
addr_dec_mask[COL]   = 000000000001c0ff 	high:17 low:0
addr_dec_mask[BURST] = 000000000000001f 	high:5 low:0
sub_partition_id_mask = 0000000000002000
GPGPU-Sim uArch: clock freqs: 1132000000.000000:1132000000.000000:1132000000.000000:850000000.000000
GPGPU-Sim uArch: clock periods: 0.00000000088339222615:0.00000000088339222615:0.00000000088339222615:0.00000000117647058824
*** Initializing Memory Statistics ***
GPGPU-Sim uArch: performance model initialization complete.
self exe links to: /home/pli11/Videos/parboil_benchmark/parboil/benchmarks/spmv/build/nvm_default/spmv
self exe links to: /home/pli11/Videos/parboil_benchmark/parboil/benchmarks/spmv/build/nvm_default/spmv
10.1
GPGPU-Sim PTX: __cudaRegisterFatBinary, fat_cubin_handle = 1, filename=default
self exe links to: /home/pli11/Videos/parboil_benchmark/parboil/benchmarks/spmv/build/nvm_default/spmv
Running md5sum using "md5sum /home/pli11/Videos/parboil_benchmark/parboil/benchmarks/spmv/build/nvm_default/spmv "
self exe links to: /home/pli11/Videos/parboil_benchmark/parboil/benchmarks/spmv/build/nvm_default/spmv
Extracting specific PTX file named spmv.1.sm_70.ptx 
GPGPU-Sim PTX: __cudaRegisterFunction _Z13spmv_jds_nvmbPfPKfPKiS3_S1_S3_i : hostFun 0x0x40402b, fat_cubin_handle = 1
GPGPU-Sim PTX: Parsing spmv.1.sm_70.ptx
GPGPU-Sim PTX: allocating global region for "tex_x_float" from 0x100 to 0x104 (global memory space)
GPGPU-Sim PTX: allocating constant region for "jds_ptr_int" from 0x180 to 0x4fa0 (global memory space) 1
GPGPU-Sim PTX: allocating constant region for "sh_zcnt_int" from 0x5000 to 0x9e20 (global memory space) 2
GPGPU-Sim PTX: allocating global region for "NVM_log" from 0x9e80 to 0x4009e80 (global memory space)
GPGPU-Sim PTX: allocating global region for "NVM_flag" from 0x4009e80 to 0x4409e80 (global memory space)
GPGPU-Sim PTX: instruction assembly for function '_Z13spmv_jds_nvmoPfPKfPKiS3_S1_S3_i'...   done.
GPGPU-Sim PTX: instruction assembly for function '_Z13spmv_jds_nvmuPfPKfPKiS3_S1_S3_i'...   done.
GPGPU-Sim PTX: instruction assembly for function '_Z13spmv_jds_nvm1PfPKfPKiS3_S1_S3_i'...   done.
GPGPU-Sim PTX: instruction assembly for function '_Z13spmv_jds_nvm2PfPKfPKiS3_S1_S3_i'...   done.
GPGPU-Sim PTX: instruction assembly for function '_Z13spmv_jds_nvmgPfPKfPKiS3_S1_S3_i'...   done.
GPGPU-Sim PTX: instruction assembly for function '_Z13spmv_jds_nvm3PfPKfPKiS3_S1_S3_i'...   done.
GPGPU-Sim PTX: instruction assembly for function '_Z13spmv_jds_nvm4PfPKfPKiS3_S1_S3_i'...   done.
GPGPU-Sim PTX: instruction assembly for function '_Z13spmv_jds_nvmiPfPKfPKiS3_S1_S3_i'...   done.
GPGPU-Sim PTX: instruction assembly for function '_Z13spmv_jds_nvm6PfPKfPKiS3_S1_S3_i'...   done.
GPGPU-Sim PTX: instruction assembly for function '_Z13spmv_jds_nvm5PfPKfPKiS3_S1_S3_i'...   done.
GPGPU-Sim PTX: instruction assembly for function '_Z8spmv_jdsPfPKfPKiS3_S1_S3_i'...   done.
GPGPU-Sim PTX: instruction assembly for function '_Z13spmv_jds_nvmbPfPKfPKiS3_S1_S3_i'...   done.
GPGPU-Sim PTX: finished parsing EMBEDDED .ptx file spmv.1.sm_70.ptx
GPGPU-Sim PTX: loading globals with explicit initializers... 
GPGPU-Sim PTX: finished loading globals (0 bytes total).
GPGPU-Sim PTX: loading constants with explicit initializers...  done.
GPGPU-Sim PTX: Loading PTXInfo from spmv.1.sm_70.ptx
GPGPU-Sim PTX: Binary info : gmem=71303168, cmem=40000
GPGPU-Sim PTX: Kernel '_Z13spmv_jds_nvmbPfPKfPKiS3_S1_S3_i' : regs=31, lmem=0, smem=0, cmem=412
GPGPU-Sim PTX: Kernel '_Z8spmv_jdsPfPKfPKiS3_S1_S3_i' : regs=31, lmem=0, smem=0, cmem=412
GPGPU-Sim PTX: Kernel '_Z13spmv_jds_nvm5PfPKfPKiS3_S1_S3_i' : regs=32, lmem=0, smem=0, cmem=412
GPGPU-Sim PTX: Kernel '_Z13spmv_jds_nvm6PfPKfPKiS3_S1_S3_i' : regs=32, lmem=0, smem=0, cmem=412
GPGPU-Sim PTX: Kernel '_Z13spmv_jds_nvmiPfPKfPKiS3_S1_S3_i' : regs=32, lmem=0, smem=0, cmem=412
GPGPU-Sim PTX: Kernel '_Z13spmv_jds_nvm4PfPKfPKiS3_S1_S3_i' : regs=32, lmem=0, smem=0, cmem=412
GPGPU-Sim PTX: Kernel '_Z13spmv_jds_nvm3PfPKfPKiS3_S1_S3_i' : regs=32, lmem=0, smem=0, cmem=412
GPGPU-Sim PTX: Kernel '_Z13spmv_jds_nvmgPfPKfPKiS3_S1_S3_i' : regs=32, lmem=0, smem=0, cmem=412
GPGPU-Sim PTX: Kernel '_Z13spmv_jds_nvm2PfPKfPKiS3_S1_S3_i' : regs=31, lmem=0, smem=0, cmem=412
GPGPU-Sim PTX: Kernel '_Z13spmv_jds_nvm1PfPKfPKiS3_S1_S3_i' : regs=31, lmem=0, smem=0, cmem=412
GPGPU-Sim PTX: Kernel '_Z13spmv_jds_nvmuPfPKfPKiS3_S1_S3_i' : regs=31, lmem=0, smem=0, cmem=412
GPGPU-Sim PTX: Kernel '_Z13spmv_jds_nvmoPfPKfPKiS3_S1_S3_i' : regs=31, lmem=0, smem=0, cmem=412
GPGPU-Sim PTX: __cudaRegisterFunction _Z8spmv_jdsPfPKfPKiS3_S1_S3_i : hostFun 0x0x403e2e, fat_cubin_handle = 1
GPGPU-Sim PTX: __cudaRegisterFunction _Z13spmv_jds_nvm5PfPKfPKiS3_S1_S3_i : hostFun 0x0x403c31, fat_cubin_handle = 1
GPGPU-Sim PTX: __cudaRegisterFunction _Z13spmv_jds_nvm6PfPKfPKiS3_S1_S3_i : hostFun 0x0x403a34, fat_cubin_handle = 1
GPGPU-Sim PTX: __cudaRegisterFunction _Z13spmv_jds_nvmiPfPKfPKiS3_S1_S3_i : hostFun 0x0x403837, fat_cubin_handle = 1
GPGPU-Sim PTX: __cudaRegisterFunction _Z13spmv_jds_nvm4PfPKfPKiS3_S1_S3_i : hostFun 0x0x40363a, fat_cubin_handle = 1
GPGPU-Sim PTX: __cudaRegisterFunction _Z13spmv_jds_nvm3PfPKfPKiS3_S1_S3_i : hostFun 0x0x40343d, fat_cubin_handle = 1
GPGPU-Sim PTX: __cudaRegisterFunction _Z13spmv_jds_nvmgPfPKfPKiS3_S1_S3_i : hostFun 0x0x403240, fat_cubin_handle = 1
GPGPU-Sim PTX: __cudaRegisterFunction _Z13spmv_jds_nvm2PfPKfPKiS3_S1_S3_i : hostFun 0x0x403043, fat_cubin_handle = 1
GPGPU-Sim PTX: __cudaRegisterFunction _Z13spmv_jds_nvm1PfPKfPKiS3_S1_S3_i : hostFun 0x0x402e46, fat_cubin_handle = 1
GPGPU-Sim PTX: __cudaRegisterFunction _Z13spmv_jds_nvmuPfPKfPKiS3_S1_S3_i : hostFun 0x0x402c49, fat_cubin_handle = 1
GPGPU-Sim PTX: __cudaRegisterFunction _Z13spmv_jds_nvmoPfPKfPKiS3_S1_S3_i : hostFun 0x0x402a4c, fat_cubin_handle = 1
GPGPU-Sim PTX: in __cudaRegisterTexture:
GPGPU-Sim PTX:   int dim = 1
GPGPU-Sim PTX:   int norm = 0
GPGPU-Sim PTX:   int ext = 0
GPGPU-Sim PTX:   Execution warning: Not finished implementing "void __cudaRegisterTextureInternal(void**, const textureReference*, const void**, const char*, int, int, int, gpgpu_context*)"
GPGPU-Sim PTX: __cudaRegisterVar: hostVar = 0x60e2e0; deviceAddress = jds_ptr_int; deviceName = jds_ptr_int
GPGPU-Sim PTX: __cudaRegisterVar: Registering const memory space of 20000 bytes
GPGPU-Sim PTX registering constant jds_ptr_int (20000 bytes) to name mapping
GPGPU-Sim PTX: __cudaRegisterVar: hostVar = 0x613100; deviceAddress = sh_zcnt_int; deviceName = sh_zcnt_int
GPGPU-Sim PTX: __cudaRegisterVar: Registering const memory space of 20000 bytes
GPGPU-Sim PTX registering constant sh_zcnt_int (20000 bytes) to name mapping
GPGPU-Sim PTX: __cudaRegisterVar: hostVar = 0x617f20; deviceAddress = NVM_log; deviceName = NVM_log
GPGPU-Sim PTX: __cudaRegisterVar: Registering const memory space of 67108864 bytes
GPGPU-Sim PTX registering global NVM_log hostVar to name mapping
GPGPU-Sim PTX: __cudaRegisterVar: hostVar = 0x4617f20; deviceAddress = NVM_flag; deviceName = NVM_flag
GPGPU-Sim PTX: __cudaRegisterVar: Registering const memory space of 4194304 bytes
GPGPU-Sim PTX registering global NVM_flag hostVar to name mapping
/home/pli11/Videos/parboil_benchmark/parboil/benchmarks/spmv/build/nvm_default/spmv -i /home/pli11/Videos/parboil_benchmark/parboil/datasets/spmv/large/input/Dubcova3.mtx.bin,/home/pli11/Videos/parboil_benchmark/parboil/datasets/spmv/large/input/vector.bin -o /home/pli11/Videos/parboil_benchmark/parboil/benchmarks/spmv/run/large/Dubcova3.mtx.out 
CUDA accelerated sparse matrix vector multiplication****
Original version by Li-Wen Chang <lchang20@illinois.edu> and Shengzhao Wu<wu14@illinois.edu>
This version maintained by Chris Rodrigues  ***********
Converting COO to JDS format (146689x146689)
3636649 matrix entries, warp size = 32, row padding align = 1, pack size = 1

Padding data....146720 rows, 4585 groups
Allocating data space: 3637664 entries (0.027903% padding)
Finished converting.
JDS format has 146720 columns, 49 rows.
nz_count_len = 4585
GPGPU-Sim PTX: cudaMemcpyToSymbol: symbol = 0x60e2e0
GPGPU-Sim PTX: starting gpgpu_ptx_sim_memcpy_symbol with hostVar 0x0x60e2e0
GPGPU-Sim PTX: gpgpu_ptx_sim_memcpy_symbol: Found PTX symbol w/ hostVar=0x60e2e0
GPGPU-Sim PTX: gpgpu_ptx_sim_memcpy_symbol: copying const memory 200 bytes  to  symbol jds_ptr_int+0 @0x180 ...
GPGPU-Sim PTX: cudaMemcpyToSymbol: symbol = 0x613100
GPGPU-Sim PTX: starting gpgpu_ptx_sim_memcpy_symbol with hostVar 0x0x613100
GPGPU-Sim PTX: gpgpu_ptx_sim_memcpy_symbol: Found PTX symbol w/ hostVar=0x613100
GPGPU-Sim PTX: gpgpu_ptx_sim_memcpy_symbol: copying const memory 18340 bytes  to  symbol sh_zcnt_int+0 @0x5000 ...
GPGPU-Sim: synchronize waiting for inactive GPU simulation
GPGPU-Sim API: Stream Manager State
GPGPU-Sim: detected inactive GPU simulation thread
event update
GPGPU-Sim: synchronize waiting for inactive GPU simulation
GPGPU-Sim API: Stream Manager State
GPGPU-Sim: detected inactive GPU simulation thread
GPGPU-Sim PTX: Setting up arguments for 8 bytes starting at 0x7ffc42f72908..
GPGPU-Sim PTX: Setting up arguments for 8 bytes starting at 0x7ffc42f72900..
GPGPU-Sim PTX: Setting up arguments for 8 bytes starting at 0x7ffc42f728f8..
GPGPU-Sim PTX: Setting up arguments for 8 bytes starting at 0x7ffc42f728f0..
GPGPU-Sim PTX: Setting up arguments for 8 bytes starting at 0x7ffc42f728e8..
GPGPU-Sim PTX: Setting up arguments for 8 bytes starting at 0x7ffc42f728e0..
GPGPU-Sim PTX: Setting up arguments for 4 bytes starting at 0x7ffc42f729a0..

GPGPU-Sim PTX: cudaLaunch for 0x0x402c49 (mode=performance simulation) on stream 0
GPGPU-Sim PTX: finding reconvergence points for '_Z13spmv_jds_nvmuPfPKfPKiS3_S1_S3_i'...
GPGPU-Sim PTX: Finding dominators for '_Z13spmv_jds_nvmuPfPKfPKiS3_S1_S3_i'...
GPGPU-Sim PTX: Finding immediate dominators for '_Z13spmv_jds_nvmuPfPKfPKiS3_S1_S3_i'...
GPGPU-Sim PTX: Finding postdominators for '_Z13spmv_jds_nvmuPfPKfPKiS3_S1_S3_i'...
GPGPU-Sim PTX: Finding immediate postdominators for '_Z13spmv_jds_nvmuPfPKfPKiS3_S1_S3_i'...
GPGPU-Sim PTX: pre-decoding instructions for '_Z13spmv_jds_nvmuPfPKfPKiS3_S1_S3_i'...
GPGPU-Sim PTX: reconvergence points for _Z13spmv_jds_nvmuPfPKfPKiS3_S1_S3_i...
GPGPU-Sim PTX:  1 (potential) branch divergence @  PC=0x668 (spmv.1.sm_70.ptx:295) @%p1 bra BB1_19;
GPGPU-Sim PTX:    immediate post dominator      @  PC=0xc30 (spmv.1.sm_70.ptx:521) ret;
GPGPU-Sim PTX:  2 (potential) branch divergence @  PC=0x710 (spmv.1.sm_70.ptx:317) @%p2 bra BB1_2;
GPGPU-Sim PTX:    immediate post dominator      @  PC=0xb98 (spmv.1.sm_70.ptx:492) fma.rn.f32 %f39, %f47, %f48, %f45;
GPGPU-Sim PTX:  3 (potential) branch divergence @  PC=0x768 (spmv.1.sm_70.ptx:329) @%p3 bra BB1_4;
GPGPU-Sim PTX:    immediate post dominator      @  PC=0xb88 (spmv.1.sm_70.ptx:488) ld.global.f32 %f47, [%rd118];
GPGPU-Sim PTX:  4 (potential) branch divergence @  PC=0x7a0 (spmv.1.sm_70.ptx:337) @%p4 bra BB1_6;
GPGPU-Sim PTX:    immediate post dominator      @  PC=0x9c8 (spmv.1.sm_70.ptx:427) setp.lt.u32%p7, %r24, 4;
GPGPU-Sim PTX:  5 (potential) branch divergence @  PC=0x7b8 (spmv.1.sm_70.ptx:341) @%p5 bra BB1_8;
GPGPU-Sim PTX:    immediate post dominator      @  PC=0x930 (spmv.1.sm_70.ptx:406) mul.wide.s32 %rd68, %r76, 4;
GPGPU-Sim PTX:  6 (potential) branch divergence @  PC=0x7c0 (spmv.1.sm_70.ptx:342) bra.uni BB1_9;
GPGPU-Sim PTX:    immediate post dominator      @  PC=0x818 (spmv.1.sm_70.ptx:363) setp.eq.s32%p6, %r25, 2;
GPGPU-Sim PTX:  7 (potential) branch divergence @  PC=0x7d0 (spmv.1.sm_70.ptx:346) bra.uni BB1_13;
GPGPU-Sim PTX:    immediate post dominator      @  PC=0x930 (spmv.1.sm_70.ptx:406) mul.wide.s32 %rd68, %r76, 4;
GPGPU-Sim PTX:  8 (potential) branch divergence @  PC=0x7e0 (spmv.1.sm_70.ptx:350) bra.uni BB1_18;
GPGPU-Sim PTX:    immediate post dominator      @  PC=0xb98 (spmv.1.sm_70.ptx:492) fma.rn.f32 %f39, %f47, %f48, %f45;
GPGPU-Sim PTX:  9 (potential) branch divergence @  PC=0x7f8 (spmv.1.sm_70.ptx:355) bra.uni BB1_17;
GPGPU-Sim PTX:    immediate post dominator      @  PC=0xb88 (spmv.1.sm_70.ptx:488) ld.global.f32 %f47, [%rd118];
GPGPU-Sim PTX: 10 (potential) branch divergence @  PC=0x810 (spmv.1.sm_70.ptx:360) bra.uni BB1_14;
GPGPU-Sim PTX:    immediate post dominator      @  PC=0x9c8 (spmv.1.sm_70.ptx:427) setp.lt.u32%p7, %r24, 4;
GPGPU-Sim PTX: 11 (potential) branch divergence @  PC=0x828 (spmv.1.sm_70.ptx:365) @%p6 bra BB1_10;
GPGPU-Sim PTX:    immediate post dominator      @  PC=0x8b0 (spmv.1.sm_70.ptx:388) mul.wide.s32 %rd59, %r75, 4;
GPGPU-Sim PTX: 12 (potential) branch divergence @  PC=0x830 (spmv.1.sm_70.ptx:366) bra.uni BB1_11;
GPGPU-Sim PTX:    immediate post dominator      @  PC=0x848 (spmv.1.sm_70.ptx:373) ld.global.f32 %f21, [%rd2];
GPGPU-Sim PTX: 13 (potential) branch divergence @  PC=0x840 (spmv.1.sm_70.ptx:370) bra.uni BB1_12;
GPGPU-Sim PTX:    immediate post dominator      @  PC=0x8b0 (spmv.1.sm_70.ptx:388) mul.wide.s32 %rd59, %r75, 4;
GPGPU-Sim PTX: 14 (potential) branch divergence @  PC=0x9d0 (spmv.1.sm_70.ptx:428) @%p7 bra BB1_17;
GPGPU-Sim PTX:    immediate post dominator      @  PC=0xb88 (spmv.1.sm_70.ptx:488) ld.global.f32 %f47, [%rd118];
GPGPU-Sim PTX: 15 (potential) branch divergence @  PC=0xb80 (spmv.1.sm_70.ptx:485) @%p8 bra BB1_16;
GPGPU-Sim PTX:    immediate post dominator      @  PC=0xb88 (spmv.1.sm_70.ptx:488) ld.global.f32 %f47, [%rd118];
GPGPU-Sim PTX: ... end of reconvergence points for _Z13spmv_jds_nvmuPfPKfPKiS3_S1_S3_i
GPGPU-Sim PTX: ... done pre-decoding instructions for '_Z13spmv_jds_nvmuPfPKfPKiS3_S1_S3_i'.
GPGPU-Sim PTX: pushing kernel '_Z13spmv_jds_nvmuPfPKfPKiS3_S1_S3_i' to stream 0, gridDim= (765,1,1) blockDim = (192,1,1) 
GPGPU-Sim uArch: Shader 0 bind to kernel 1 '_Z13spmv_jds_nvmuPfPKfPKiS3_S1_S3_i'
GPGPU-Sim uArch: CTA/core = 10, limited by: threads regs
GPGPU-Sim: Reconfigure L1 cache to 128KB
GPGPU-Sim uArch: Shader 1 bind to kernel 1 '_Z13spmv_jds_nvmuPfPKfPKiS3_S1_S3_i'
GPGPU-Sim uArch: Shader 2 bind to kernel 1 '_Z13spmv_jds_nvmuPfPKfPKiS3_S1_S3_i'
GPGPU-Sim uArch: Shader 3 bind to kernel 1 '_Z13spmv_jds_nvmuPfPKfPKiS3_S1_S3_i'
GPGPU-Sim uArch: Shader 4 bind to kernel 1 '_Z13spmv_jds_nvmuPfPKfPKiS3_S1_S3_i'
GPGPU-Sim uArch: Shader 5 bind to kernel 1 '_Z13spmv_jds_nvmuPfPKfPKiS3_S1_S3_i'
GPGPU-Sim uArch: Shader 6 bind to kernel 1 '_Z13spmv_jds_nvmuPfPKfPKiS3_S1_S3_i'
GPGPU-Sim uArch: Shader 7 bind to kernel 1 '_Z13spmv_jds_nvmuPfPKfPKiS3_S1_S3_i'
GPGPU-Sim uArch: Shader 8 bind to kernel 1 '_Z13spmv_jds_nvmuPfPKfPKiS3_S1_S3_i'
GPGPU-Sim uArch: Shader 9 bind to kernel 1 '_Z13spmv_jds_nvmuPfPKfPKiS3_S1_S3_i'
GPGPU-Sim uArch: Shader 10 bind to kernel 1 '_Z13spmv_jds_nvmuPfPKfPKiS3_S1_S3_i'
GPGPU-Sim uArch: Shader 11 bind to kernel 1 '_Z13spmv_jds_nvmuPfPKfPKiS3_S1_S3_i'
GPGPU-Sim uArch: Shader 12 bind to kernel 1 '_Z13spmv_jds_nvmuPfPKfPKiS3_S1_S3_i'
GPGPU-Sim uArch: Shader 13 bind to kernel 1 '_Z13spmv_jds_nvmuPfPKfPKiS3_S1_S3_i'
GPGPU-Sim uArch: Shader 14 bind to kernel 1 '_Z13spmv_jds_nvmuPfPKfPKiS3_S1_S3_i'
GPGPU-Sim uArch: Shader 15 bind to kernel 1 '_Z13spmv_jds_nvmuPfPKfPKiS3_S1_S3_i'
GPGPU-Sim uArch: Shader 16 bind to kernel 1 '_Z13spmv_jds_nvmuPfPKfPKiS3_S1_S3_i'
GPGPU-Sim uArch: Shader 17 bind to kernel 1 '_Z13spmv_jds_nvmuPfPKfPKiS3_S1_S3_i'
GPGPU-Sim uArch: Shader 18 bind to kernel 1 '_Z13spmv_jds_nvmuPfPKfPKiS3_S1_S3_i'
GPGPU-Sim uArch: Shader 19 bind to kernel 1 '_Z13spmv_jds_nvmuPfPKfPKiS3_S1_S3_i'
GPGPU-Sim uArch: Shader 20 bind to kernel 1 '_Z13spmv_jds_nvmuPfPKfPKiS3_S1_S3_i'
GPGPU-Sim uArch: Shader 21 bind to kernel 1 '_Z13spmv_jds_nvmuPfPKfPKiS3_S1_S3_i'
GPGPU-Sim uArch: Shader 22 bind to kernel 1 '_Z13spmv_jds_nvmuPfPKfPKiS3_S1_S3_i'
GPGPU-Sim uArch: Shader 23 bind to kernel 1 '_Z13spmv_jds_nvmuPfPKfPKiS3_S1_S3_i'
GPGPU-Sim uArch: Shader 24 bind to kernel 1 '_Z13spmv_jds_nvmuPfPKfPKiS3_S1_S3_i'
GPGPU-Sim uArch: Shader 25 bind to kernel 1 '_Z13spmv_jds_nvmuPfPKfPKiS3_S1_S3_i'
GPGPU-Sim uArch: Shader 26 bind to kernel 1 '_Z13spmv_jds_nvmuPfPKfPKiS3_S1_S3_i'
GPGPU-Sim uArch: Shader 27 bind to kernel 1 '_Z13spmv_jds_nvmuPfPKfPKiS3_S1_S3_i'
GPGPU-Sim uArch: Shader 28 bind to kernel 1 '_Z13spmv_jds_nvmuPfPKfPKiS3_S1_S3_i'
GPGPU-Sim uArch: Shader 29 bind to kernel 1 '_Z13spmv_jds_nvmuPfPKfPKiS3_S1_S3_i'
GPGPU-Sim uArch: Shader 30 bind to kernel 1 '_Z13spmv_jds_nvmuPfPKfPKiS3_S1_S3_i'
GPGPU-Sim uArch: Shader 31 bind to kernel 1 '_Z13spmv_jds_nvmuPfPKfPKiS3_S1_S3_i'
GPGPU-Sim uArch: Shader 32 bind to kernel 1 '_Z13spmv_jds_nvmuPfPKfPKiS3_S1_S3_i'
GPGPU-Sim uArch: Shader 33 bind to kernel 1 '_Z13spmv_jds_nvmuPfPKfPKiS3_S1_S3_i'
GPGPU-Sim uArch: Shader 34 bind to kernel 1 '_Z13spmv_jds_nvmuPfPKfPKiS3_S1_S3_i'
GPGPU-Sim uArch: Shader 35 bind to kernel 1 '_Z13spmv_jds_nvmuPfPKfPKiS3_S1_S3_i'
GPGPU-Sim uArch: Shader 36 bind to kernel 1 '_Z13spmv_jds_nvmuPfPKfPKiS3_S1_S3_i'
GPGPU-Sim uArch: Shader 37 bind to kernel 1 '_Z13spmv_jds_nvmuPfPKfPKiS3_S1_S3_i'
GPGPU-Sim uArch: Shader 38 bind to kernel 1 '_Z13spmv_jds_nvmuPfPKfPKiS3_S1_S3_i'
GPGPU-Sim uArch: Shader 39 bind to kernel 1 '_Z13spmv_jds_nvmuPfPKfPKiS3_S1_S3_i'
GPGPU-Sim uArch: Shader 40 bind to kernel 1 '_Z13spmv_jds_nvmuPfPKfPKiS3_S1_S3_i'
GPGPU-Sim uArch: Shader 41 bind to kernel 1 '_Z13spmv_jds_nvmuPfPKfPKiS3_S1_S3_i'
GPGPU-Sim uArch: Shader 42 bind to kernel 1 '_Z13spmv_jds_nvmuPfPKfPKiS3_S1_S3_i'
GPGPU-Sim uArch: Shader 43 bind to kernel 1 '_Z13spmv_jds_nvmuPfPKfPKiS3_S1_S3_i'
GPGPU-Sim uArch: Shader 44 bind to kernel 1 '_Z13spmv_jds_nvmuPfPKfPKiS3_S1_S3_i'
GPGPU-Sim uArch: Shader 45 bind to kernel 1 '_Z13spmv_jds_nvmuPfPKfPKiS3_S1_S3_i'
GPGPU-Sim uArch: Shader 46 bind to kernel 1 '_Z13spmv_jds_nvmuPfPKfPKiS3_S1_S3_i'
GPGPU-Sim uArch: Shader 47 bind to kernel 1 '_Z13spmv_jds_nvmuPfPKfPKiS3_S1_S3_i'
GPGPU-Sim uArch: Shader 48 bind to kernel 1 '_Z13spmv_jds_nvmuPfPKfPKiS3_S1_S3_i'
GPGPU-Sim uArch: Shader 49 bind to kernel 1 '_Z13spmv_jds_nvmuPfPKfPKiS3_S1_S3_i'
GPGPU-Sim uArch: Shader 50 bind to kernel 1 '_Z13spmv_jds_nvmuPfPKfPKiS3_S1_S3_i'
GPGPU-Sim uArch: Shader 51 bind to kernel 1 '_Z13spmv_jds_nvmuPfPKfPKiS3_S1_S3_i'
GPGPU-Sim uArch: Shader 52 bind to kernel 1 '_Z13spmv_jds_nvmuPfPKfPKiS3_S1_S3_i'
GPGPU-Sim uArch: Shader 53 bind to kernel 1 '_Z13spmv_jds_nvmuPfPKfPKiS3_S1_S3_i'
GPGPU-Sim uArch: Shader 54 bind to kernel 1 '_Z13spmv_jds_nvmuPfPKfPKiS3_S1_S3_i'
GPGPU-Sim uArch: Shader 55 bind to kernel 1 '_Z13spmv_jds_nvmuPfPKfPKiS3_S1_S3_i'
GPGPU-Sim uArch: Shader 56 bind to kernel 1 '_Z13spmv_jds_nvmuPfPKfPKiS3_S1_S3_i'
GPGPU-Sim uArch: Shader 57 bind to kernel 1 '_Z13spmv_jds_nvmuPfPKfPKiS3_S1_S3_i'
GPGPU-Sim uArch: Shader 58 bind to kernel 1 '_Z13spmv_jds_nvmuPfPKfPKiS3_S1_S3_i'
GPGPU-Sim uArch: Shader 59 bind to kernel 1 '_Z13spmv_jds_nvmuPfPKfPKiS3_S1_S3_i'
GPGPU-Sim uArch: Shader 60 bind to kernel 1 '_Z13spmv_jds_nvmuPfPKfPKiS3_S1_S3_i'
GPGPU-Sim uArch: Shader 61 bind to kernel 1 '_Z13spmv_jds_nvmuPfPKfPKiS3_S1_S3_i'
GPGPU-Sim uArch: Shader 62 bind to kernel 1 '_Z13spmv_jds_nvmuPfPKfPKiS3_S1_S3_i'
GPGPU-Sim uArch: Shader 63 bind to kernel 1 '_Z13spmv_jds_nvmuPfPKfPKiS3_S1_S3_i'
GPGPU-Sim uArch: Shader 64 bind to kernel 1 '_Z13spmv_jds_nvmuPfPKfPKiS3_S1_S3_i'
GPGPU-Sim uArch: Shader 65 bind to kernel 1 '_Z13spmv_jds_nvmuPfPKfPKiS3_S1_S3_i'
GPGPU-Sim uArch: Shader 66 bind to kernel 1 '_Z13spmv_jds_nvmuPfPKfPKiS3_S1_S3_i'
GPGPU-Sim uArch: Shader 67 bind to kernel 1 '_Z13spmv_jds_nvmuPfPKfPKiS3_S1_S3_i'
GPGPU-Sim uArch: Shader 68 bind to kernel 1 '_Z13spmv_jds_nvmuPfPKfPKiS3_S1_S3_i'
GPGPU-Sim uArch: Shader 69 bind to kernel 1 '_Z13spmv_jds_nvmuPfPKfPKiS3_S1_S3_i'
GPGPU-Sim uArch: Shader 70 bind to kernel 1 '_Z13spmv_jds_nvmuPfPKfPKiS3_S1_S3_i'
GPGPU-Sim uArch: Shader 71 bind to kernel 1 '_Z13spmv_jds_nvmuPfPKfPKiS3_S1_S3_i'
GPGPU-Sim uArch: Shader 72 bind to kernel 1 '_Z13spmv_jds_nvmuPfPKfPKiS3_S1_S3_i'
GPGPU-Sim uArch: Shader 73 bind to kernel 1 '_Z13spmv_jds_nvmuPfPKfPKiS3_S1_S3_i'
GPGPU-Sim uArch: Shader 74 bind to kernel 1 '_Z13spmv_jds_nvmuPfPKfPKiS3_S1_S3_i'
GPGPU-Sim uArch: Shader 75 bind to kernel 1 '_Z13spmv_jds_nvmuPfPKfPKiS3_S1_S3_i'
GPGPU-Sim uArch: Shader 76 bind to kernel 1 '_Z13spmv_jds_nvmuPfPKfPKiS3_S1_S3_i'
GPGPU-Sim uArch: Shader 77 bind to kernel 1 '_Z13spmv_jds_nvmuPfPKfPKiS3_S1_S3_i'
GPGPU-Sim uArch: Shader 78 bind to kernel 1 '_Z13spmv_jds_nvmuPfPKfPKiS3_S1_S3_i'
GPGPU-Sim uArch: Shader 79 bind to kernel 1 '_Z13spmv_jds_nvmuPfPKfPKiS3_S1_S3_i'
kernel_name = _Z13spmv_jds_nvmuPfPKfPKiS3_S1_S3_i 
kernel_launch_uid = 1 
gpu_sim_cycle = 46944
gpu_sim_insn = 39949668
gpu_ipc =     851.0069
gpu_tot_sim_cycle = 46944
gpu_tot_sim_insn = 39949668
gpu_tot_ipc =     851.0069
gpu_tot_issued_cta = 765
gpu_occupancy = 84.5677% 
gpu_tot_occupancy = 84.5677% 
max_total_param_size = 0
gpu_stall_dramfull = 821306
gpu_stall_icnt2sh    = 0
partiton_level_parallism =      20.8814
partiton_level_parallism_total  =      20.8814
partiton_level_parallism_util =      23.7499
partiton_level_parallism_util_total  =      23.7499
L2_BW  =     745.0636 GB/Sec
L2_BW_total  =     745.0636 GB/Sec
gpu_total_sim_rate=89173
############## bottleneck_stats #############
cycles: core 46944, icnt 46944, l2 46944, dram 35249
gpu_ipc	851.007
gpu_tot_issued_cta = 765, average cycles = 61
n_dram_writes	 0, n_dram_reads	 0
n_GLOBAL_ACC_R	 662966 
n_LOCAL_ACC_R	 0 
n_CONST_ACC_R	 0 
n_TEXTURE_ACC_R	 0 
n_GLOBAL_ACC_W	 0 
n_LOCAL_ACC_W	 0 
n_L1_WRBK_ACC	 0 
n_L2_WRBK_ACC	 1 
n_L1_WR_ALLOC_R	 0 
n_L2_WR_ALLOC_R	 0 

n_sm	 80, n_schedulers	 4
scheduler util	0.085	80
L1D data util	1.011	80	1.166	2
L1D tag util	0.363	80	0.443	3
L2 data util	0.946	64	0.956	34
L2 tag util	0.327	64	0.410	57
n_l2_access	 981267
icnt s2m util	0.000	0	0.000	57	flits per packet: -nan
icnt m2s util	0.000	0	0.000	57	flits per packet: -nan
sum=0
n_mem	 32
dram util	0.588	32	0.590	8

latency_l1_hit:	8532562, num_l1_reqs:	426517
L1 hit latency:	20
latency_l2_hit:	157936334, num_l2_reqs:	162108
L2 hit latency:	974
latency_dram:	646827612, num_dram_reqs:	675473
DRAM latency:	957

n_reg	65536, n_smem	98304, n_thread	2048, n_tb	32
reg file	0.938
smem size	0.000
thread slot	0.938
TB slot    	0.312
L1I tag util	0.177	80	0.187	11

n_mem_pipe	1, n_sp_pipe	4, n_sfu_pipe	4
mem pipe util	0.099	80	0.105	11
sp pipe util	0.000	0	0.000	11
sfu pipe util	0.000	0	0.000	11
ldst mem cycle	0.037	80	0.043	23

smem port	0.000	0

n_reg_bank	16
reg port	0.060	16	0.071	13
L1D tag util	0.363	80	0.443	3
L1D fill util	0.218	80	0.246	0
n_l1d_mshr	4096
L1D mshr util	0.050	80
n_l1d_missq	16
L1D missq util	0.032	80
L1D hit rate	0.313
L1D miss rate	0.651
L1D rsfail rate	0.036
L2 tag util	0.327	64	0.410	57
L2 fill util	0.221	64	0.223	17
n_l2_mshr	192
n_l2_missq	32
L2 mshr util	0.626	64	0.665	57
L2 missq util	0.007	64	0.007	48
L2 hit rate	0.165
L2 miss rate	0.696
L2 rsfail rate	0.139

dram activity	0.644	32	0.659	6

load trans eff	0.604
load trans sz	32.000
load_useful_bytes 25188096, load_transaction_bytes 41726464, icnt_m2s_bytes 0
n_gmem_load_insns 245687, n_gmem_load_accesses 1303952
n_smem_access_insn 0, n_smem_accesses 0

tmp_counter/12	0.370

run 0.008, fetch 0.000, sync 0.077, control 0.000, data 0.911, struct 0.004
############ end_bottleneck_stats #############

========= Core cache stats =========
L1I_cache:
	L1I_total_cache_accesses = 0
	L1I_total_cache_misses = 0
	L1I_total_cache_pending_hits = 0
	L1I_total_cache_reservation_fails = 0
L1D_cache:
	L1D_cache_core[0]: Access = 19305, Miss = 12363, Miss_rate = 0.640, Pending_hits = 0, Reservation_fails = 929
	L1D_cache_core[1]: Access = 19510, Miss = 12211, Miss_rate = 0.626, Pending_hits = 0, Reservation_fails = 1242
	L1D_cache_core[2]: Access = 19690, Miss = 12258, Miss_rate = 0.623, Pending_hits = 0, Reservation_fails = 483
	L1D_cache_core[3]: Access = 19447, Miss = 12051, Miss_rate = 0.620, Pending_hits = 0, Reservation_fails = 1356
	L1D_cache_core[4]: Access = 18182, Miss = 11889, Miss_rate = 0.654, Pending_hits = 0, Reservation_fails = 769
	L1D_cache_core[5]: Access = 18165, Miss = 11884, Miss_rate = 0.654, Pending_hits = 0, Reservation_fails = 1386
	L1D_cache_core[6]: Access = 18081, Miss = 11583, Miss_rate = 0.641, Pending_hits = 0, Reservation_fails = 1292
	L1D_cache_core[7]: Access = 18085, Miss = 11847, Miss_rate = 0.655, Pending_hits = 0, Reservation_fails = 1240
	L1D_cache_core[8]: Access = 18100, Miss = 12094, Miss_rate = 0.668, Pending_hits = 0, Reservation_fails = 415
	L1D_cache_core[9]: Access = 18459, Miss = 11976, Miss_rate = 0.649, Pending_hits = 0, Reservation_fails = 645
	L1D_cache_core[10]: Access = 18068, Miss = 11829, Miss_rate = 0.655, Pending_hits = 0, Reservation_fails = 573
	L1D_cache_core[11]: Access = 18421, Miss = 12324, Miss_rate = 0.669, Pending_hits = 0, Reservation_fails = 597
	L1D_cache_core[12]: Access = 18721, Miss = 12220, Miss_rate = 0.653, Pending_hits = 0, Reservation_fails = 579
	L1D_cache_core[13]: Access = 18833, Miss = 12275, Miss_rate = 0.652, Pending_hits = 0, Reservation_fails = 573
	L1D_cache_core[14]: Access = 18340, Miss = 11808, Miss_rate = 0.644, Pending_hits = 0, Reservation_fails = 482
	L1D_cache_core[15]: Access = 17310, Miss = 11140, Miss_rate = 0.644, Pending_hits = 0, Reservation_fails = 1214
	L1D_cache_core[16]: Access = 17504, Miss = 11508, Miss_rate = 0.657, Pending_hits = 0, Reservation_fails = 794
	L1D_cache_core[17]: Access = 17403, Miss = 11512, Miss_rate = 0.661, Pending_hits = 0, Reservation_fails = 672
	L1D_cache_core[18]: Access = 17483, Miss = 11439, Miss_rate = 0.654, Pending_hits = 0, Reservation_fails = 821
	L1D_cache_core[19]: Access = 17609, Miss = 11657, Miss_rate = 0.662, Pending_hits = 0, Reservation_fails = 125
	L1D_cache_core[20]: Access = 17501, Miss = 11466, Miss_rate = 0.655, Pending_hits = 0, Reservation_fails = 1373
	L1D_cache_core[21]: Access = 17368, Miss = 11414, Miss_rate = 0.657, Pending_hits = 0, Reservation_fails = 262
	L1D_cache_core[22]: Access = 17201, Miss = 11558, Miss_rate = 0.672, Pending_hits = 0, Reservation_fails = 35
	L1D_cache_core[23]: Access = 16425, Miss = 11152, Miss_rate = 0.679, Pending_hits = 0, Reservation_fails = 119
	L1D_cache_core[24]: Access = 16385, Miss = 11299, Miss_rate = 0.690, Pending_hits = 0, Reservation_fails = 581
	L1D_cache_core[25]: Access = 16605, Miss = 11243, Miss_rate = 0.677, Pending_hits = 0, Reservation_fails = 135
	L1D_cache_core[26]: Access = 16319, Miss = 10910, Miss_rate = 0.669, Pending_hits = 0, Reservation_fails = 638
	L1D_cache_core[27]: Access = 16373, Miss = 11133, Miss_rate = 0.680, Pending_hits = 0, Reservation_fails = 1188
	L1D_cache_core[28]: Access = 16459, Miss = 11326, Miss_rate = 0.688, Pending_hits = 0, Reservation_fails = 6
	L1D_cache_core[29]: Access = 16332, Miss = 11109, Miss_rate = 0.680, Pending_hits = 0, Reservation_fails = 338
	L1D_cache_core[30]: Access = 16375, Miss = 11089, Miss_rate = 0.677, Pending_hits = 0, Reservation_fails = 1015
	L1D_cache_core[31]: Access = 16492, Miss = 11240, Miss_rate = 0.682, Pending_hits = 0, Reservation_fails = 575
	L1D_cache_core[32]: Access = 16445, Miss = 11106, Miss_rate = 0.675, Pending_hits = 0, Reservation_fails = 456
	L1D_cache_core[33]: Access = 16489, Miss = 11939, Miss_rate = 0.724, Pending_hits = 0, Reservation_fails = 569
	L1D_cache_core[34]: Access = 16556, Miss = 12009, Miss_rate = 0.725, Pending_hits = 0, Reservation_fails = 359
	L1D_cache_core[35]: Access = 16566, Miss = 11933, Miss_rate = 0.720, Pending_hits = 0, Reservation_fails = 60
	L1D_cache_core[36]: Access = 16117, Miss = 11725, Miss_rate = 0.727, Pending_hits = 0, Reservation_fails = 711
	L1D_cache_core[37]: Access = 16266, Miss = 11608, Miss_rate = 0.714, Pending_hits = 0, Reservation_fails = 1364
	L1D_cache_core[38]: Access = 16378, Miss = 11606, Miss_rate = 0.709, Pending_hits = 0, Reservation_fails = 551
	L1D_cache_core[39]: Access = 16535, Miss = 11757, Miss_rate = 0.711, Pending_hits = 0, Reservation_fails = 596
	L1D_cache_core[40]: Access = 16232, Miss = 11733, Miss_rate = 0.723, Pending_hits = 0, Reservation_fails = 134
	L1D_cache_core[41]: Access = 16360, Miss = 11812, Miss_rate = 0.722, Pending_hits = 0, Reservation_fails = 642
	L1D_cache_core[42]: Access = 16335, Miss = 11907, Miss_rate = 0.729, Pending_hits = 0, Reservation_fails = 616
	L1D_cache_core[43]: Access = 16513, Miss = 11871, Miss_rate = 0.719, Pending_hits = 0, Reservation_fails = 0
	L1D_cache_core[44]: Access = 15269, Miss = 10785, Miss_rate = 0.706, Pending_hits = 0, Reservation_fails = 674
	L1D_cache_core[45]: Access = 15375, Miss = 10483, Miss_rate = 0.682, Pending_hits = 0, Reservation_fails = 0
	L1D_cache_core[46]: Access = 15374, Miss = 10374, Miss_rate = 0.675, Pending_hits = 0, Reservation_fails = 43
	L1D_cache_core[47]: Access = 15160, Miss = 10272, Miss_rate = 0.678, Pending_hits = 0, Reservation_fails = 1247
	L1D_cache_core[48]: Access = 15462, Miss = 10492, Miss_rate = 0.679, Pending_hits = 0, Reservation_fails = 770
	L1D_cache_core[49]: Access = 15479, Miss = 10370, Miss_rate = 0.670, Pending_hits = 0, Reservation_fails = 518
	L1D_cache_core[50]: Access = 15469, Miss = 10303, Miss_rate = 0.666, Pending_hits = 0, Reservation_fails = 0
	L1D_cache_core[51]: Access = 15361, Miss = 10404, Miss_rate = 0.677, Pending_hits = 0, Reservation_fails = 478
	L1D_cache_core[52]: Access = 15464, Miss = 10478, Miss_rate = 0.678, Pending_hits = 0, Reservation_fails = 0
	L1D_cache_core[53]: Access = 15399, Miss = 10364, Miss_rate = 0.673, Pending_hits = 0, Reservation_fails = 316
	L1D_cache_core[54]: Access = 15038, Miss = 10159, Miss_rate = 0.676, Pending_hits = 0, Reservation_fails = 231
	L1D_cache_core[55]: Access = 15316, Miss = 10439, Miss_rate = 0.682, Pending_hits = 0, Reservation_fails = 105
	L1D_cache_core[56]: Access = 15218, Miss = 10408, Miss_rate = 0.684, Pending_hits = 0, Reservation_fails = 412
	L1D_cache_core[57]: Access = 15159, Miss = 10369, Miss_rate = 0.684, Pending_hits = 0, Reservation_fails = 129
	L1D_cache_core[58]: Access = 15138, Miss = 10199, Miss_rate = 0.674, Pending_hits = 0, Reservation_fails = 1402
	L1D_cache_core[59]: Access = 15098, Miss = 10183, Miss_rate = 0.674, Pending_hits = 0, Reservation_fails = 1150
	L1D_cache_core[60]: Access = 15465, Miss = 10495, Miss_rate = 0.679, Pending_hits = 0, Reservation_fails = 700
	L1D_cache_core[61]: Access = 15499, Miss = 10583, Miss_rate = 0.683, Pending_hits = 0, Reservation_fails = 0
	L1D_cache_core[62]: Access = 15141, Miss = 10238, Miss_rate = 0.676, Pending_hits = 0, Reservation_fails = 422
	L1D_cache_core[63]: Access = 15290, Miss = 10312, Miss_rate = 0.674, Pending_hits = 0, Reservation_fails = 525
	L1D_cache_core[64]: Access = 15190, Miss = 10286, Miss_rate = 0.677, Pending_hits = 0, Reservation_fails = 796
	L1D_cache_core[65]: Access = 15345, Miss = 10347, Miss_rate = 0.674, Pending_hits = 0, Reservation_fails = 303
	L1D_cache_core[66]: Access = 15023, Miss = 10154, Miss_rate = 0.676, Pending_hits = 0, Reservation_fails = 918
	L1D_cache_core[67]: Access = 15399, Miss = 10593, Miss_rate = 0.688, Pending_hits = 0, Reservation_fails = 0
	L1D_cache_core[68]: Access = 15438, Miss = 10400, Miss_rate = 0.674, Pending_hits = 0, Reservation_fails = 899
	L1D_cache_core[69]: Access = 14976, Miss = 10184, Miss_rate = 0.680, Pending_hits = 0, Reservation_fails = 756
	L1D_cache_core[70]: Access = 15245, Miss = 10302, Miss_rate = 0.676, Pending_hits = 0, Reservation_fails = 938
	L1D_cache_core[71]: Access = 15351, Miss = 10397, Miss_rate = 0.677, Pending_hits = 0, Reservation_fails = 58
	L1D_cache_core[72]: Access = 15120, Miss = 10280, Miss_rate = 0.680, Pending_hits = 0, Reservation_fails = 696
	L1D_cache_core[73]: Access = 15362, Miss = 10415, Miss_rate = 0.678, Pending_hits = 0, Reservation_fails = 400
	L1D_cache_core[74]: Access = 15195, Miss = 10232, Miss_rate = 0.673, Pending_hits = 0, Reservation_fails = 1061
	L1D_cache_core[75]: Access = 15267, Miss = 10385, Miss_rate = 0.680, Pending_hits = 0, Reservation_fails = 959
	L1D_cache_core[76]: Access = 15081, Miss = 10260, Miss_rate = 0.680, Pending_hits = 0, Reservation_fails = 301
	L1D_cache_core[77]: Access = 15293, Miss = 10458, Miss_rate = 0.684, Pending_hits = 0, Reservation_fails = 617
	L1D_cache_core[78]: Access = 15135, Miss = 10235, Miss_rate = 0.676, Pending_hits = 0, Reservation_fails = 1382
	L1D_cache_core[79]: Access = 15355, Miss = 10324, Miss_rate = 0.672, Pending_hits = 0, Reservation_fails = 914
	L1D_total_cache_accesses = 1313292
	L1D_total_cache_misses = 886775
	L1D_total_cache_miss_rate = 0.6752
	L1D_total_cache_pending_hits = 0
	L1D_total_cache_reservation_fails = 48630
	L1D_cache_data_port_util = 0.127
	L1D_cache_fill_port_util = 0.244
L1C_cache:
	L1C_total_cache_accesses = 0
	L1C_total_cache_misses = 0
	L1C_total_cache_pending_hits = 0
	L1C_total_cache_reservation_fails = 0
L1T_cache:
	L1T_total_cache_accesses = 0
	L1T_total_cache_misses = 0
	L1T_total_cache_pending_hits = 0
	L1T_total_cache_reservation_fails = 0

Total_core_cache_stats:
	Total_core_cache_stats_breakdown[GLOBAL_ACC_R][HIT] = 426517
	Total_core_cache_stats_breakdown[GLOBAL_ACC_R][HIT_RESERVED] = 0
	Total_core_cache_stats_breakdown[GLOBAL_ACC_R][MISS] = 773081
	Total_core_cache_stats_breakdown[GLOBAL_ACC_R][RESERVATION_FAIL] = 47677
	Total_core_cache_stats_breakdown[GLOBAL_ACC_R][SECTOR_MISS] = 103638
	Total_core_cache_stats_breakdown[LOCAL_ACC_R][HIT] = 0
	Total_core_cache_stats_breakdown[LOCAL_ACC_R][HIT_RESERVED] = 0
	Total_core_cache_stats_breakdown[LOCAL_ACC_R][MISS] = 0
	Total_core_cache_stats_breakdown[LOCAL_ACC_R][RESERVATION_FAIL] = 0
	Total_core_cache_stats_breakdown[LOCAL_ACC_R][SECTOR_MISS] = 0
	Total_core_cache_stats_breakdown[CONST_ACC_R][HIT] = 0
	Total_core_cache_stats_breakdown[CONST_ACC_R][HIT_RESERVED] = 0
	Total_core_cache_stats_breakdown[CONST_ACC_R][MISS] = 0
	Total_core_cache_stats_breakdown[CONST_ACC_R][RESERVATION_FAIL] = 0
	Total_core_cache_stats_breakdown[CONST_ACC_R][SECTOR_MISS] = 0
	Total_core_cache_stats_breakdown[TEXTURE_ACC_R][HIT] = 0
	Total_core_cache_stats_breakdown[TEXTURE_ACC_R][HIT_RESERVED] = 0
	Total_core_cache_stats_breakdown[TEXTURE_ACC_R][MISS] = 0
	Total_core_cache_stats_breakdown[TEXTURE_ACC_R][RESERVATION_FAIL] = 0
	Total_core_cache_stats_breakdown[TEXTURE_ACC_R][SECTOR_MISS] = 0
	Total_core_cache_stats_breakdown[GLOBAL_ACC_W][HIT] = 0
	Total_core_cache_stats_breakdown[GLOBAL_ACC_W][HIT_RESERVED] = 0
	Total_core_cache_stats_breakdown[GLOBAL_ACC_W][MISS] = 10056
	Total_core_cache_stats_breakdown[GLOBAL_ACC_W][RESERVATION_FAIL] = 953
	Total_core_cache_stats_breakdown[GLOBAL_ACC_W][SECTOR_MISS] = 0
	Total_core_cache_stats_breakdown[LOCAL_ACC_W][HIT] = 0
	Total_core_cache_stats_breakdown[LOCAL_ACC_W][HIT_RESERVED] = 0
	Total_core_cache_stats_breakdown[LOCAL_ACC_W][MISS] = 0
	Total_core_cache_stats_breakdown[LOCAL_ACC_W][RESERVATION_FAIL] = 0
	Total_core_cache_stats_breakdown[LOCAL_ACC_W][SECTOR_MISS] = 0
	Total_core_cache_stats_breakdown[L1_WRBK_ACC][HIT] = 0
	Total_core_cache_stats_breakdown[L1_WRBK_ACC][HIT_RESERVED] = 0
	Total_core_cache_stats_breakdown[L1_WRBK_ACC][MISS] = 0
	Total_core_cache_stats_breakdown[L1_WRBK_ACC][RESERVATION_FAIL] = 0
	Total_core_cache_stats_breakdown[L1_WRBK_ACC][SECTOR_MISS] = 0
	Total_core_cache_stats_breakdown[L2_WRBK_ACC][HIT] = 0
	Total_core_cache_stats_breakdown[L2_WRBK_ACC][HIT_RESERVED] = 0
	Total_core_cache_stats_breakdown[L2_WRBK_ACC][MISS] = 0
	Total_core_cache_stats_breakdown[L2_WRBK_ACC][RESERVATION_FAIL] = 0
	Total_core_cache_stats_breakdown[L2_WRBK_ACC][SECTOR_MISS] = 0
	Total_core_cache_stats_breakdown[INST_ACC_R][HIT] = 0
	Total_core_cache_stats_breakdown[INST_ACC_R][HIT_RESERVED] = 0
	Total_core_cache_stats_breakdown[INST_ACC_R][MISS] = 0
	Total_core_cache_stats_breakdown[INST_ACC_R][RESERVATION_FAIL] = 0
	Total_core_cache_stats_breakdown[INST_ACC_R][SECTOR_MISS] = 0
	Total_core_cache_stats_breakdown[L1_WR_ALLOC_R][HIT] = 0
	Total_core_cache_stats_breakdown[L1_WR_ALLOC_R][HIT_RESERVED] = 0
	Total_core_cache_stats_breakdown[L1_WR_ALLOC_R][MISS] = 0
	Total_core_cache_stats_breakdown[L1_WR_ALLOC_R][RESERVATION_FAIL] = 0
	Total_core_cache_stats_breakdown[L1_WR_ALLOC_R][SECTOR_MISS] = 0
	Total_core_cache_stats_breakdown[L2_WR_ALLOC_R][HIT] = 0
	Total_core_cache_stats_breakdown[L2_WR_ALLOC_R][HIT_RESERVED] = 0
	Total_core_cache_stats_breakdown[L2_WR_ALLOC_R][MISS] = 0
	Total_core_cache_stats_breakdown[L2_WR_ALLOC_R][RESERVATION_FAIL] = 0
	Total_core_cache_stats_breakdown[L2_WR_ALLOC_R][SECTOR_MISS] = 0
	Total_core_cache_stats_breakdown[GLOBAL_ACC_R][TOTAL_ACCESS] = 1303236
	Total_core_cache_stats_breakdown[GLOBAL_ACC_W][TOTAL_ACCESS] = 10056

Total_core_cache_fail_stats:
	Total_core_cache_fail_stats_breakdown[GLOBAL_ACC_R][MISS_QUEUE_FULL] = 47677
	Total_core_cache_fail_stats_breakdown[GLOBAL_ACC_W][MISS_QUEUE_FULL] = 953
Shader 0 warp_id issue ditsribution:
warp_id:
0, 1, 2, 3, 4, 5, 6, 7, 8, 9, 10, 11, 12, 13, 14, 15, 16, 17, 18, 19, 20, 21, 22, 23, 24, 25, 26, 27, 28, 29, 30, 31, 32, 33, 34, 35, 36, 37, 38, 39, 40, 41, 42, 43, 44, 45, 46, 47, 48, 49, 50, 51, 52, 53, 54, 55, 56, 57, 58, 59, 
distro:
288, 292, 288, 292, 292, 292, 288, 288, 288, 288, 288, 292, 287, 287, 287, 287, 287, 280, 280, 287, 280, 287, 287, 280, 280, 287, 280, 280, 287, 287, 280, 280, 280, 287, 287, 280, 270, 270, 270, 270, 269, 269, 270, 269, 269, 270, 269, 269, 270, 270, 270, 270, 270, 270, 270, 269, 270, 270, 270, 270, 
gpgpu_n_tot_thrd_icount = 40916288
gpgpu_n_tot_w_icount = 1278634
gpgpu_n_stall_shd_mem = 1395763
gpgpu_n_mem_read_local = 0
gpgpu_n_mem_write_local = 0
gpgpu_n_mem_read_global = 832388
gpgpu_n_mem_write_global = 149317
gpgpu_n_mem_texture = 0
gpgpu_n_mem_const = 0
gpgpu_n_load_insn  = 7860701
gpgpu_n_store_insn = 196515
gpgpu_n_shmem_insn = 0
gpgpu_n_sstarr_insn = 0
gpgpu_n_tex_insn = 0
gpgpu_n_const_mem_insn = 2805674
gpgpu_n_param_mem_insn = 881280
gpgpu_n_shmem_bkconflict = 0
gpgpu_n_cache_bkconflict = 0
gpgpu_n_intrawarp_mshr_merge = 0
gpgpu_n_cmem_portconflict = 0
gpgpu_stall_shd_mem[c_mem][resource_stall] = 0
gpgpu_stall_shd_mem[s_mem][bk_conf] = 0
gpgpu_stall_shd_mem[gl_mem][resource_stall] = 1099163
gpgpu_stall_shd_mem[gl_mem][coal_stall] = 135165
gpgpu_stall_shd_mem[gl_mem][data_port_stall] = 0
gpu_reg_bank_conflict_stalls = 0
Warp Occupancy Distribution:
Stall:645929	W0_Idle:400	W0_Scoreboard:11493620	W1:172	W2:0	W3:0	W4:0	W5:0	W6:0	W7:0	W8:0	W9:0	W10:0	W11:0	W12:0	W13:0	W14:0	W15:0	W16:0	W17:0	W18:0	W19:0	W20:0	W21:0	W22:0	W23:0	W24:0	W25:0	W26:0	W27:0	W28:0	W29:0	W30:0	W31:0	W32:1281639
single_issue_nums: WS0:326067	WS1:326124	WS2:314792	WS3:314828	
dual_issue_nums: WS0:0	WS1:0	WS2:0	WS3:0	
traffic_breakdown_coretomem[GLOBAL_ACC_R] = 6659104 {8:832388,}
traffic_breakdown_coretomem[GLOBAL_ACC_W] = 1516328 {8:139261,40:10056,}
traffic_breakdown_memtocore[GLOBAL_ACC_R] = 32775120 {40:819378,}
traffic_breakdown_memtocore[GLOBAL_ACC_W] = 1168664 {8:146083,}
maxmflatency = 7569 
max_icnt2mem_latency = 5896 
maxmrqlatency = 859 
max_icnt2sh_latency = 179 
averagemflatency = 1275 
avg_icnt2mem_latency = 503 
avg_mrq_latency = 56 
avg_icnt2sh_latency = 4 
mrq_lat_table:68872 	56112 	53558 	73642 	75295 	117831 	130532 	71619 	15263 	217 	0 	0 	0 	0 	0 	0 	0 	0 	0 	0 	0 	0 	0 	0 	0 	0 	0 	0 	0 	0 	0 	0 	
dq_lat_table:0 	0 	0 	0 	0 	0 	0 	0 	0 	0 	0 	0 	0 	0 	0 	0 	0 	0 	0 	0 	0 	0 	0 	0 	0 	0 	0 	0 	0 	0 	0 	0 	
mf_lat_table:0 	0 	0 	0 	0 	0 	0 	52890 	48231 	540812 	165942 	100965 	56598 	0 	0 	0 	0 	0 	0 	0 	0 	0 	0 	0 	0 	0 	0 	0 	0 	0 	0 	0 	
icnt2mem_lat_table:0 	679 	692 	943 	478347 	102351 	59035 	61629 	55103 	72474 	52963 	89482 	6557 	0 	0 	0 	0 	0 	0 	0 	0 	0 	0 	0 	
icnt2sh_lat_table:0 	771542 	114195 	41324 	22954 	10972 	4257 	194 	0 	0 	0 	0 	0 	0 	0 	0 	0 	0 	0 	0 	0 	0 	0 	0 	
mf_lat_pw_table:0 	0 	0 	0 	0 	0 	0 	0 	1 	49 	14 	13 	5 	0 	0 	0 	0 	0 	0 	0 	0 	0 	0 	0 	0 	0 	0 	0 	0 	0 	0 	0 	
maximum concurrent accesses to same row:
dram[0]:        64        64        64        64        64        64        64        64        64        64        64        64        64        64        64        64 
dram[1]:        64        64        64        64        64        64        64        64        64        64        64        64        64        64        64        64 
dram[2]:        64        64        64        64        64        64        64        64        64        64        64        64        64        64        64        64 
dram[3]:        64        64        64        64        64        64        64        64        64        64        64        64        64        64        64        64 
dram[4]:        64        64        64        64        64        64        64        64        64        64        64        64        64        64        64        64 
dram[5]:        64        64        64        64        64        64        64        64        64        64        64        64        64        64        64        64 
dram[6]:        64        64        64        64        64        64        64        64        64        64        64        64        64        64        64        64 
dram[7]:        64        64        64        64        64        64        64        64        64        64        64        64        64        64        64        64 
dram[8]:        64        64        64        64        64        64        64        64        64        64        64        64        64        64        64        64 
dram[9]:        64        64        64        64        64        64        64        64        64        64        64        64        64        64        64        64 
dram[10]:        64        64        64        64        64        64        64        64        64        64        64        64        64        64        64        64 
dram[11]:        64        64        64        64        64        64        64        64        64        64        64        64        64        64        64        64 
dram[12]:        64        64        64        64        64        64        64        64        64        64        64        64        64        64        64        64 
dram[13]:        64        64        64        64        64        64        64        64        64        64        64        64        64        64        64        64 
dram[14]:        64        64        64        64        64        64        64        64        64        64        64        64        64        64        64        64 
dram[15]:        64        64        64        64        64        64        64        64        64        64        64        64        64        64        64        64 
dram[16]:        64        64        64        64        64        64        64        64        64        64        64        64        64        64        64        64 
dram[17]:        64        64        64        64        64        64        64        64        64        64        64        64        64        64        64        64 
dram[18]:        64        64        64        64        64        64        64        64        64        64        64        64        64        64        64        64 
dram[19]:        64        64        64        64        64        64        64        64        64        64        64        64        64        64        64        64 
dram[20]:        64        64        64        64        64        64        64        64        64        64        64        64        64        64        64        64 
dram[21]:        64        64        64        64        64        64        64        64        64        64        64        64        64        64        64        64 
dram[22]:        64        64        64        64        64        64        64        64        64        64        64        64        64        64        64        64 
dram[23]:        64        64        64        64        64        64        64        64        64        64        64        64        64        64        64        64 
dram[24]:        64        64        64        64        64        64        64        64        64        64        64        64        64        64        64        64 
dram[25]:        64        64        64        64        64        64        64        64        64        64        64        64        64        64        64        64 
dram[26]:        64        64        64        64        64        64        64        64        64        64        64        64        64        64        64        64 
dram[27]:        64        64        64        64        64        64        64        64        64        64        64        64        64        64        64        64 
dram[28]:        64        64        64        64        64        64        64        64        64        64        64        64        64        64        64        64 
dram[29]:        64        64        64        64        64        64        64        64        64        64        64        64        64        64        64        64 
dram[30]:        64        64        64        64        64        64        64        64        64        64        64        64        64        64        64        64 
dram[31]:        64        64        64        64        64        64        64        64        64        64        64        64        64        64        64        64 
maximum service time to same row:
dram[0]:     12320      5812     11287      6075      6432      6448      7556      8620      7103      7027      7501      7502     12297     11672     11976     11239 
dram[1]:     10145     11115      6147      6011      6470      6441      8871      7556      9068      6940      7518      8217     11297     10722     11496     10101 
dram[2]:      5823     10067      6117      6119      6445      6446      8581      8073      8611      7745      7472      7529     11982      9565     12260     10657 
dram[3]:      5827     10340      6063     10480      6316      6469      6773      8578      7291      6983      7436      8242     11643     10001     12793     10322 
dram[4]:      5812      5823      6136      6075      6389      6476      6717      8670      7004      7138      9723      7486     12037     10733     11280     10881 
dram[5]:      5823      5812      6096      6107      6408      6445      8444      6686      7043     10107      8583      7464     10981     10561     11453     10438 
dram[6]:     11678      5812      6104      6105      6388      6425      8392      8760      6966      8772      7541      7393     11575     12978     11875      5835 
dram[7]:     11042      5823      6132      6036      6377      6421      9931      9313      7014      8462      7525      7421     10939     11653     12176     10443 
dram[8]:      5812     12560      6107      6049      6382      6462      9707      8624      7902      7449      7516      8631     11498     12093     13520     11655 
dram[9]:     11143      5812      6123      6113      6421      6416      9743      9178      7020      8581      9022      7670     11663     12469     13451     12055 
dram[10]:     11550      5823      6151      6080      6340      6428     10337      9002      7402      7058      7522      9799     12228     12041     12888     11930 
dram[11]:      5812     11856      6096      6055      6405      6406     10213      8512      7434      7037      8521      8626     12397     11241     11068     13106 
dram[12]:     10662     12008      6031      6117      6457      6417      7008      9052      7003      9142      8435      8659     11817      9867     10597     12204 
dram[13]:      5812      5823      6084      6093      6382      6405      9170      6622      6964      8446      8716     10347     13122     10887     12548     12597 
dram[14]:      5812     10472      6096      6056      6428      6429      8740      8761      7924      8797      9330      7433     12508     10056     10349     11833 
dram[15]:     11641     10578      6052      6089      6402      6779      8674      9294      6987      7356      7390      9551     11256      9145     12297     10491 
dram[16]:     10029      5823      6117      6083      6402      7934      8724      9094      7087     10238      7441      7421     10049     11462     10998     12424 
dram[17]:     11243      5827      6065      6045      6388      6498      9117      6742      6994      7225      7390      7470     10372     10277     11538     12732 
dram[18]:      5823      9773      6023      6139      6438      6440      7572      8817      7018      7200      7831      8618     12580     11218     13206     11935 
dram[19]:      9274      5823      6117      6077      6366      6480      8903      8251      7024      7291      8424      8578      9702      9187     11309     10370 
dram[20]:     10996      7985      6088      6089      6748      6418      8054      9226      7074      7156      8507      7493     11200     10691     11324     10533 
dram[21]:      5823      9463      6023      6139      6392      7079      9273      8682      7452      7075      8310      9343     11013     11452     11218      5835 
dram[22]:      9711      7200      6121      6109      6376      6410      6698      8011      7178      9143      9273      7369     10364     11903     11497     12804 
dram[23]:     11113      9942      6103      6061      6386      7904      8615      9211      6991      7826      9907      8579     12413      9818     13003     11587 
dram[24]:     10003      5812      6031      6116      6410      6453      8555      7803      7858      7766      9359      8586     11828     12396     11702     12058 
dram[25]:      5812      9238      6121      6077      6382      6470      7260      9768      8188      8292     10129      7549     13338     11534      5876     12282 
dram[26]:      5812      5827      6135      6031      6385      6450      7010      9233      6938      7163      7428      7466     12642     11943     13185     12996 
dram[27]:      5823      5812      6081      6083      7352      7214      8667      9333      7302      7227      7597     10125     11352     12540     11725     12786 
dram[28]:      5812      9815      6132      6059      6405      6426      6681      9801      6978      7304      7506      8287     11218     11361     12400     11516 
dram[29]:      5812      5827      6081      6065      6422      6380      6754      9262      9610      7844      7852      7501     11095     11665     11556     12886 
dram[30]:      5823     11906      6039      6125      6861      9261      7166      8567      7366      7151      9315      8184     11288     10506     12219     11412 
dram[31]:      5812     12053      6152      6075      8659      6454     10116      7433      9487      7177      7485      9752     13244     11620     12964     12982 
average row accesses per activate:
dram[0]: 41.000000 43.733334 34.564102 34.461540 32.195122 36.222221 40.875000 33.948719 39.515152 33.333332 29.000000 30.452381 28.909090 36.588234 35.485714 41.733334 
dram[1]: 54.500000 35.675674 40.636364 43.354839 34.736843 34.526318 28.977777 45.655174 35.351353 39.393940 26.750000 30.761906 24.615385 32.179485 41.333332 41.733334 
dram[2]: 40.750000 33.000000 32.780487 40.727272 29.244444 39.515152 38.352940 34.526318 32.200001 34.736843 34.270271 32.400002 29.714285 35.000000 36.969696 43.758621 
dram[3]: 38.470589 41.500000 28.595745 29.304348 32.024391 29.066668 32.900002 33.769230 36.333332 27.416666 29.488373 30.046511 30.243902 31.700001 34.333332 42.400002 
dram[4]: 45.241379 31.238094 33.500000 31.255814 31.707317 28.347826 30.697674 38.823528 31.609756 39.424244 23.924528 33.684212 29.809525 33.157894 35.314285 45.000000 
dram[5]: 39.757576 34.526318 38.400002 28.595745 33.461540 34.421051 40.500000 31.523809 32.400002 28.434782 27.063829 30.380953 32.947369 27.304348 39.483871 41.466667 
dram[6]: 38.705883 36.444443 31.255814 23.578947 37.485714 32.599998 38.352940 42.225807 28.782608 41.677418 33.333332 31.799999 30.214285 32.315788 40.258064 39.483871 
dram[7]: 42.709679 32.799999 33.599998 26.879999 32.799999 33.641026 44.000000 41.125000 33.025642 35.243244 34.270271 34.810810 30.095238 31.121952 43.103447 39.125000 
dram[8]: 36.444443 32.924999 38.400002 30.545454 34.526318 36.444443 38.823528 44.400002 27.446808 34.842106 31.900000 33.333332 34.666668 33.684212 42.482758 44.571430 
dram[9]: 34.631580 36.444443 30.454546 28.000000 32.000000 31.804878 34.421051 40.875000 26.122450 37.882355 30.190475 26.833334 31.400000 27.555555 38.500000 38.500000 
dram[10]: 48.629631 38.588234 38.400002 26.879999 26.240000 31.634146 40.750000 32.799999 28.086956 36.714287 31.121952 25.117647 33.945946 29.904762 36.235294 38.875000 
dram[11]: 34.526318 34.631580 28.595745 27.428572 26.260000 36.444443 29.727272 36.555557 27.913044 34.486488 28.444445 28.088888 38.060608 34.666668 44.428570 41.599998 
dram[12]: 37.599998 42.354839 29.866667 31.255814 29.155556 38.588234 36.333332 41.375000 23.851852 35.567566 29.000000 33.333332 35.000000 30.829268 41.733334 43.310345 
dram[13]: 34.526318 37.485714 34.461540 29.866667 41.000000 37.485714 36.444443 39.058823 28.434782 34.105263 26.687500 33.263157 35.771427 32.842106 36.588234 36.588234 
dram[14]: 42.322582 34.631580 38.400002 32.780487 33.641026 33.435898 38.823528 34.500000 25.411764 40.250000 24.692308 30.829268 31.299999 30.731707 37.818180 37.636364 
dram[15]: 32.900002 33.846153 40.606060 28.000000 24.754717 40.875000 37.111111 48.000000 22.807018 40.875000 27.234043 27.489361 29.714285 31.121952 41.333332 35.222221 
dram[16]: 32.195122 38.588234 40.727272 29.866667 25.725491 33.333332 36.777779 37.257141 30.511627 38.666668 31.121952 29.904762 31.900000 33.837837 42.266666 42.344826 
dram[17]: 30.000000 37.485714 36.243244 33.599998 30.511627 43.733334 40.750000 35.243244 26.775511 38.235294 23.777779 33.918919 28.727272 37.176472 36.941177 37.696968 
dram[18]: 29.155556 34.631580 38.400002 34.461540 35.459461 36.333332 36.444443 31.142857 25.333334 31.780487 30.190475 41.161289 28.090910 34.777779 35.314285 36.823528 
dram[19]: 36.108109 33.641026 36.324326 35.368420 30.418604 38.588234 38.823528 30.952381 25.647058 30.857143 29.767443 30.261906 29.767443 30.900000 51.040001 32.842106 
dram[20]: 33.099998 38.823528 31.255814 34.461540 25.230770 36.444443 31.428572 34.473682 26.693878 31.634146 22.137932 28.177778 28.886364 31.200001 39.500000 35.314285 
dram[21]: 34.526318 47.000000 32.780487 40.727272 30.511627 34.945946 36.777779 41.580647 24.452829 37.529411 24.461538 32.102566 27.326086 35.542858 36.470589 34.000000 
dram[22]: 36.777779 45.379311 34.461540 24.436363 35.459461 34.526318 33.846153 36.333332 25.461538 36.571430 25.076923 31.121952 24.000000 36.735294 44.750000 33.189190 
dram[23]: 31.333334 35.675674 28.595745 33.599998 30.348837 36.444443 34.526318 36.000000 27.000000 46.285713 25.019608 32.299999 28.177778 41.419353 47.846153 36.342857 
dram[24]: 31.190475 35.459461 28.000000 34.461540 29.155556 35.459461 37.111111 34.631580 27.187500 37.882355 29.953489 31.024391 27.565218 40.258064 41.733334 35.200001 
dram[25]: 33.641026 36.555557 28.595745 32.000000 36.305557 31.047619 31.804878 40.375000 30.761906 48.000000 25.520000 44.000000 24.400000 36.228573 39.483871 40.419353 
dram[26]: 30.511627 35.459461 26.879999 33.599998 29.818182 39.666668 38.588234 36.666668 28.866667 36.111111 27.148935 29.767443 21.084745 34.378380 47.692307 36.941177 
dram[27]: 35.459461 37.485714 33.599998 33.599998 31.238094 35.459461 33.641026 43.633335 28.799999 36.571430 29.860466 31.700001 25.306122 31.424999 48.000000 41.200001 
dram[28]: 33.641026 36.555557 37.333332 28.000000 33.641026 39.515152 38.823528 42.193550 28.326086 29.272728 32.000000 32.666668 29.023256 34.162163 45.000000 39.250000 
dram[29]: 42.322582 39.757576 34.461540 36.324326 30.325581 35.459461 38.705883 39.176472 27.702127 41.419353 31.146341 35.222221 26.553192 35.000000 48.000000 47.384617 
dram[30]: 34.526318 41.125000 37.333332 32.780487 28.434782 38.117645 34.605263 40.750000 26.551020 38.909092 27.826086 34.486488 27.911112 31.900000 47.692307 34.666668 
dram[31]: 42.322582 41.031250 40.727272 36.324326 39.757576 38.588234 37.599998 34.421051 26.160000 32.717949 27.148935 29.302326 27.444445 29.000000 44.035713 32.000000 
average row locality = 662941/19744 = 33.576832
number of total memory accesses made:
[...]
Row_Bus_Util =  0.034044 
CoL_Bus_Util = 0.586286 
Either_Row_CoL_Bus_Util = 0.591563 
Issued_on_Two_Bus_Simul_Util = 0.028767 
issued_two_Eff = 0.048628 
queue_avg = 23.264688 


dram_util_bins: 0 0 0 0 0 0 0 0 0 0
dram_eff_bins: 0 0 0 0 0 0 0 0 0 0
mrqq: max=64 avg=23.2647
Memory Partition 28: 
Cache L2_bank_056:

Cache L2_bank_057:

In Dram Latency Queue (total = 246): 
DRAM[28]: 16 bks, busW=16 BL=2 CL=12, tRRD=3 tCCD=1, tRCD=12 tRAS=28 tRP=12 tRC=40
n_cmd=35249 n_nop=14313 n_act=605 n_pre=589 n_ref_event=0 n_req=20736 n_rd=20732 n_rd_L2_A=0 n_write=0 n_wr_bk=0 bw_util=0.5882
n_activity=25415 dram_eff=0.8157
bk0: 1312a 31344i bk1: 1316a 30811i bk2: 1344a 31387i bk3: 1344a 30576i bk4: 1312a 31253i bk5: 1304a 31005i bk6: 1320a 31673i bk7: 1308a 31382i bk8: 1302a 31261i bk9: 1288a 30784i bk10: 1280a 31317i bk11: 1274a 30635i bk12: 1248a 30864i bk13: 1264a 30454i bk14: 1260a 31603i bk15: 1256a 31261i 

------------------------------------------------------------------------

Row_Buffer_Locality = 0.970819
Row_Buffer_Locality_read = 0.970819
Row_Buffer_Locality_write = -nan
Bank_Level_Parallism = 3.841500
Bank_Level_Parallism_Col = 3.502853
Bank_Level_Parallism_Ready = 2.469419
write_to_read_ratio_blp_rw_average = 0.000000
GrpLevelPara = 2.780661 

BW Util details:
bwutil = 0.588159 
total_CMD = 35249 
util_bw = 20732 
Wasted_Col = 1394 
Wasted_Row = 549 
Idle = 12574 

BW Util Bottlenecks: 
RCDc_limit = 1120 
RCDWRc_limit = 0 
WTRc_limit = 0 
RTWc_limit = 0 
CCDLc_limit = 909 
rwq = 0 
CCDLc_limit_alone = 909 
WTRc_limit_alone = 0 
RTWc_limit_alone = 0 

Commands details: 
total_CMD = 35249 
n_nop = 14313 
Read = 20732 
Write = 0 
L2_Alloc = 0 
L2_WB = 0 
n_act = 605 
n_pre = 589 
n_ref = 0 
n_req = 20736 
total_req = 20732 

Dual Bus Interface Util: 
issued_total_row = 1194 
issued_total_col = 20732 
Row_Bus_Util =  0.033873 
CoL_Bus_Util = 0.588159 
Either_Row_CoL_Bus_Util = 0.593946 
Issued_on_Two_Bus_Simul_Util = 0.028086 
issued_two_Eff = 0.047287 
queue_avg = 24.929955 


dram_util_bins: 0 0 0 0 0 0 0 0 0 0
dram_eff_bins: 0 0 0 0 0 0 0 0 0 0
mrqq: max=64 avg=24.93
Memory Partition 29: 
Cache L2_bank_058:

Cache L2_bank_059:

In Dram Latency Queue (total = 253): 
DRAM[29]: 16 bks, busW=16 BL=2 CL=12, tRRD=3 tCCD=1, tRCD=12 tRAS=28 tRP=12 tRC=40
n_cmd=35249 n_nop=14390 n_act=578 n_pre=562 n_ref_event=0 n_req=20697 n_rd=20695 n_rd_L2_A=0 n_write=0 n_wr_bk=0 bw_util=0.5871
n_activity=25266 dram_eff=0.8191
bk0: 1312a 31530i bk1: 1312a 31016i bk2: 1344a 31426i bk3: 1344a 30711i bk4: 1304a 31300i bk5: 1312a 31014i bk6: 1316a 31726i bk7: 1332a 31384i bk8: 1302a 30864i bk9: 1284a 30923i bk10: 1277a 30946i bk11: 1268a 30712i bk12: 1248a 30959i bk13: 1260a 30665i bk14: 1248a 31823i bk15: 1232a 31431i 

------------------------------------------------------------------------

Row_Buffer_Locality = 0.972071
Row_Buffer_Locality_read = 0.972071
Row_Buffer_Locality_write = -nan
Bank_Level_Parallism = 3.860052
Bank_Level_Parallism_Col = 3.512091
Bank_Level_Parallism_Ready = 2.464363
write_to_read_ratio_blp_rw_average = 0.000000
GrpLevelPara = 2.740926 

BW Util details:
bwutil = 0.587109 
total_CMD = 35249 
util_bw = 20695 
Wasted_Col = 1298 
Wasted_Row = 351 
Idle = 12905 

BW Util Bottlenecks: 
RCDc_limit = 1020 
RCDWRc_limit = 0 
WTRc_limit = 0 
RTWc_limit = 0 
CCDLc_limit = 909 
rwq = 0 
CCDLc_limit_alone = 909 
WTRc_limit_alone = 0 
RTWc_limit_alone = 0 

Commands details: 
total_CMD = 35249 
n_nop = 14390 
Read = 20695 
Write = 0 
L2_Alloc = 0 
L2_WB = 0 
n_act = 578 
n_pre = 562 
n_ref = 0 
n_req = 20697 
total_req = 20695 

Dual Bus Interface Util: 
issued_total_row = 1140 
issued_total_col = 20695 
Row_Bus_Util =  0.032341 
CoL_Bus_Util = 0.587109 
Either_Row_CoL_Bus_Util = 0.591761 
Issued_on_Two_Bus_Simul_Util = 0.027689 
issued_two_Eff = 0.046790 
queue_avg = 25.888592 


dram_util_bins: 0 0 0 0 0 0 0 0 0 0
dram_eff_bins: 0 0 0 0 0 0 0 0 0 0
mrqq: max=64 avg=25.8886
Memory Partition 30: 
Cache L2_bank_060:

Cache L2_bank_061:

In Dram Latency Queue (total = 254): 
DRAM[30]: 16 bks, busW=16 BL=2 CL=12, tRRD=3 tCCD=1, tRCD=12 tRAS=28 tRP=12 tRC=40
n_cmd=35249 n_nop=14369 n_act=609 n_pre=593 n_ref_event=0 n_req=20702 n_rd=20700 n_rd_L2_A=0 n_write=0 n_wr_bk=0 bw_util=0.5873
n_activity=25255 dram_eff=0.8196
bk0: 1312a 31364i bk1: 1316a 30974i bk2: 1344a 31096i bk3: 1344a 30767i bk4: 1308a 30932i bk5: 1296a 30670i bk6: 1315a 31370i bk7: 1304a 30894i bk8: 1301a 30861i bk9: 1284a 31065i bk10: 1280a 30929i bk11: 1276a 30671i bk12: 1256a 30793i bk13: 1276a 30567i bk14: 1240a 31702i bk15: 1248a 31269i 

------------------------------------------------------------------------

Row_Buffer_Locality = 0.970580
Row_Buffer_Locality_read = 0.970580
Row_Buffer_Locality_write = -nan
Bank_Level_Parallism = 3.967105
Bank_Level_Parallism_Col = 3.610581
Bank_Level_Parallism_Ready = 2.531353
write_to_read_ratio_blp_rw_average = 0.000000
GrpLevelPara = 2.834620 

BW Util details:
bwutil = 0.587251 
total_CMD = 35249 
util_bw = 20700 
Wasted_Col = 1230 
Wasted_Row = 444 
Idle = 12875 

BW Util Bottlenecks: 
RCDc_limit = 1018 
RCDWRc_limit = 0 
WTRc_limit = 0 
RTWc_limit = 0 
CCDLc_limit = 826 
rwq = 0 
CCDLc_limit_alone = 826 
WTRc_limit_alone = 0 
RTWc_limit_alone = 0 

Commands details: 
total_CMD = 35249 
n_nop = 14369 
Read = 20700 
Write = 0 
L2_Alloc = 0 
L2_WB = 0 
n_act = 609 
n_pre = 593 
n_ref = 0 
n_req = 20702 
total_req = 20700 

Dual Bus Interface Util: 
issued_total_row = 1202 
issued_total_col = 20700 
Row_Bus_Util =  0.034100 
CoL_Bus_Util = 0.587251 
Either_Row_CoL_Bus_Util = 0.592357 
Issued_on_Two_Bus_Simul_Util = 0.028994 
issued_two_Eff = 0.048946 
queue_avg = 25.710432 


dram_util_bins: 0 0 0 0 0 0 0 0 0 0
dram_eff_bins: 0 0 0 0 0 0 0 0 0 0
mrqq: max=64 avg=25.7104
Memory Partition 31: 
Cache L2_bank_062:

Cache L2_bank_063:

In Dram Latency Queue (total = 250): 
DRAM[31]: 16 bks, busW=16 BL=2 CL=12, tRRD=3 tCCD=1, tRCD=12 tRAS=28 tRP=12 tRC=40
n_cmd=35249 n_nop=14400 n_act=608 n_pre=592 n_ref_event=0 n_req=20677 n_rd=20672 n_rd_L2_A=0 n_write=0 n_wr_bk=0 bw_util=0.5865
n_activity=25159 dram_eff=0.8217
bk0: 1312a 31959i bk1: 1312a 31063i bk2: 1344a 31626i bk3: 1344a 30762i bk4: 1312a 31486i bk5: 1312a 30850i bk6: 1316a 31814i bk7: 1308a 31017i bk8: 1308a 31062i bk9: 1276a 30939i bk10: 1276a 31033i bk11: 1260a 30607i bk12: 1235a 30993i bk13: 1276a 30263i bk14: 1233a 31752i bk15: 1248a 30882i 

------------------------------------------------------------------------

Row_Buffer_Locality = 0.970590
Row_Buffer_Locality_read = 0.970590
Row_Buffer_Locality_write = -nan
Bank_Level_Parallism = 3.859271
Bank_Level_Parallism_Col = 3.506689
Bank_Level_Parallism_Ready = 2.456463
write_to_read_ratio_blp_rw_average = 0.000000
GrpLevelPara = 2.749098 

BW Util details:
bwutil = 0.586456 
total_CMD = 35249 
util_bw = 20672 
Wasted_Col = 1279 
Wasted_Row = 475 
Idle = 12823 

BW Util Bottlenecks: 
RCDc_limit = 1014 
RCDWRc_limit = 0 
WTRc_limit = 0 
RTWc_limit = 0 
CCDLc_limit = 829 
rwq = 0 
CCDLc_limit_alone = 829 
WTRc_limit_alone = 0 
RTWc_limit_alone = 0 

Commands details: 
total_CMD = 35249 
n_nop = 14400 
Read = 20672 
Write = 0 
L2_Alloc = 0 
L2_WB = 0 
n_act = 608 
n_pre = 592 
n_ref = 0 
n_req = 20677 
total_req = 20672 

Dual Bus Interface Util: 
issued_total_row = 1200 
issued_total_col = 20672 
Row_Bus_Util =  0.034044 
CoL_Bus_Util = 0.586456 
Either_Row_CoL_Bus_Util = 0.591478 
Issued_on_Two_Bus_Simul_Util = 0.029022 
issued_two_Eff = 0.049067 
queue_avg = 24.329597 


dram_util_bins: 0 0 0 0 0 0 0 0 0 0
dram_eff_bins: 0 0 0 0 0 0 0 0 0 0
mrqq: max=64 avg=24.3296

========= L2 cache stats =========
L2_cache_bank[0]: Access = 13162, Miss = 10620, Miss_rate = 0.807, Pending_hits = 27, Reservation_fails = 1288
L2_cache_bank[1]: Access = 13172, Miss = 10646, Miss_rate = 0.808, Pending_hits = 53, Reservation_fails = 888
L2_cache_bank[2]: Access = 13126, Miss = 10667, Miss_rate = 0.813, Pending_hits = 38, Reservation_fails = 138
L2_cache_bank[3]: Access = 13277, Miss = 10670, Miss_rate = 0.804, Pending_hits = 48, Reservation_fails = 2611
L2_cache_bank[4]: Access = 12786, Miss = 10547, Miss_rate = 0.825, Pending_hits = 38, Reservation_fails = 382
L2_cache_bank[5]: Access = 13313, Miss = 10634, Miss_rate = 0.799, Pending_hits = 45, Reservation_fails = 2692
L2_cache_bank[6]: Access = 13014, Miss = 10619, Miss_rate = 0.816, Pending_hits = 31, Reservation_fails = 807
L2_cache_bank[7]: Access = 13293, Miss = 10663, Miss_rate = 0.802, Pending_hits = 43, Reservation_fails = 3099
L2_cache_bank[8]: Access = 12960, Miss = 10630, Miss_rate = 0.820, Pending_hits = 34, Reservation_fails = 0
L2_cache_bank[9]: Access = 13200, Miss = 10591, Miss_rate = 0.802, Pending_hits = 61, Reservation_fails = 3259
L2_cache_bank[10]: Access = 12992, Miss = 10600, Miss_rate = 0.816, Pending_hits = 41, Reservation_fails = 383
L2_cache_bank[11]: Access = 13384, Miss = 10625, Miss_rate = 0.794, Pending_hits = 51, Reservation_fails = 1613
L2_cache_bank[12]: Access = 13020, Miss = 10639, Miss_rate = 0.817, Pending_hits = 28, Reservation_fails = 1731
L2_cache_bank[13]: Access = 13018, Miss = 10545, Miss_rate = 0.810, Pending_hits = 47, Reservation_fails = 1961
L2_cache_bank[14]: Access = 13042, Miss = 10646, Miss_rate = 0.816, Pending_hits = 28, Reservation_fails = 470
L2_cache_bank[15]: Access = 13285, Miss = 10678, Miss_rate = 0.804, Pending_hits = 39, Reservation_fails = 1420
L2_cache_bank[16]: Access = 12958, Miss = 10630, Miss_rate = 0.820, Pending_hits = 47, Reservation_fails = 100
L2_cache_bank[17]: Access = 13316, Miss = 10691, Miss_rate = 0.803, Pending_hits = 38, Reservation_fails = 4314
L2_cache_bank[18]: Access = 13091, Miss = 10606, Miss_rate = 0.810, Pending_hits = 48, Reservation_fails = 97
L2_cache_bank[19]: Access = 13278, Miss = 10614, Miss_rate = 0.799, Pending_hits = 38, Reservation_fails = 3558
L2_cache_bank[20]: Access = 13029, Miss = 10644, Miss_rate = 0.817, Pending_hits = 42, Reservation_fails = 545
L2_cache_bank[21]: Access = 13409, Miss = 10623, Miss_rate = 0.792, Pending_hits = 41, Reservation_fails = 4274
L2_cache_bank[22]: Access = 13086, Miss = 10663, Miss_rate = 0.815, Pending_hits = 49, Reservation_fails = 189
L2_cache_bank[23]: Access = 13261, Miss = 10602, Miss_rate = 0.799, Pending_hits = 29, Reservation_fails = 3667
L2_cache_bank[24]: Access = 13460, Miss = 10644, Miss_rate = 0.791, Pending_hits = 28, Reservation_fails = 1902
L2_cache_bank[25]: Access = 13213, Miss = 10642, Miss_rate = 0.805, Pending_hits = 45, Reservation_fails = 3018
L2_cache_bank[26]: Access = 13391, Miss = 10585, Miss_rate = 0.790, Pending_hits = 55, Reservation_fails = 318
L2_cache_bank[27]: Access = 13205, Miss = 10649, Miss_rate = 0.806, Pending_hits = 36, Reservation_fails = 4341
L2_cache_bank[28]: Access = 13343, Miss = 10660, Miss_rate = 0.799, Pending_hits = 47, Reservation_fails = 2640
L2_cache_bank[29]: Access = 13250, Miss = 10590, Miss_rate = 0.799, Pending_hits = 32, Reservation_fails = 2174
L2_cache_bank[30]: Access = 13430, Miss = 10644, Miss_rate = 0.793, Pending_hits = 48, Reservation_fails = 697
L2_cache_bank[31]: Access = 13303, Miss = 10628, Miss_rate = 0.799, Pending_hits = 35, Reservation_fails = 4005
L2_cache_bank[32]: Access = 13419, Miss = 10648, Miss_rate = 0.794, Pending_hits = 51, Reservation_fails = 1389
L2_cache_bank[33]: Access = 12959, Miss = 10538, Miss_rate = 0.813, Pending_hits = 29, Reservation_fails = 3604
L2_cache_bank[34]: Access = 13468, Miss = 10685, Miss_rate = 0.793, Pending_hits = 52, Reservation_fails = 558
L2_cache_bank[35]: Access = 13251, Miss = 10637, Miss_rate = 0.803, Pending_hits = 32, Reservation_fails = 2297
L2_cache_bank[36]: Access = 13270, Miss = 10620, Miss_rate = 0.800, Pending_hits = 39, Reservation_fails = 313
L2_cache_bank[37]: Access = 13214, Miss = 10582, Miss_rate = 0.801, Pending_hits = 30, Reservation_fails = 2401
L2_cache_bank[38]: Access = 13455, Miss = 10653, Miss_rate = 0.792, Pending_hits = 50, Reservation_fails = 926
L2_cache_bank[39]: Access = 13284, Miss = 10599, Miss_rate = 0.798, Pending_hits = 30, Reservation_fails = 3225
L2_cache_bank[40]: Access = 13455, Miss = 10642, Miss_rate = 0.791, Pending_hits = 56, Reservation_fails = 245
L2_cache_bank[41]: Access = 13089, Miss = 10650, Miss_rate = 0.814, Pending_hits = 38, Reservation_fails = 5060
L2_cache_bank[42]: Access = 13307, Miss = 10616, Miss_rate = 0.798, Pending_hits = 55, Reservation_fails = 2728
L2_cache_bank[43]: Access = 12763, Miss = 10508, Miss_rate = 0.823, Pending_hits = 42, Reservation_fails = 5386
L2_cache_bank[44]: Access = 13459, Miss = 10680, Miss_rate = 0.794, Pending_hits = 50, Reservation_fails = 362
L2_cache_bank[45]: Access = 13104, Miss = 10600, Miss_rate = 0.809, Pending_hits = 25, Reservation_fails = 4020
L2_cache_bank[46]: Access = 13169, Miss = 10638, Miss_rate = 0.808, Pending_hits = 57, Reservation_fails = 1068
L2_cache_bank[47]: Access = 13217, Miss = 10638, Miss_rate = 0.805, Pending_hits = 26, Reservation_fails = 5462
L2_cache_bank[48]: Access = 13289, Miss = 10714, Miss_rate = 0.806, Pending_hits = 54, Reservation_fails = 429
L2_cache_bank[49]: Access = 13215, Miss = 10602, Miss_rate = 0.802, Pending_hits = 38, Reservation_fails = 3836
L2_cache_bank[50]: Access = 13237, Miss = 10568, Miss_rate = 0.798, Pending_hits = 53, Reservation_fails = 525
L2_cache_bank[51]: Access = 13092, Miss = 10612, Miss_rate = 0.811, Pending_hits = 37, Reservation_fails = 4604
L2_cache_bank[52]: Access = 13296, Miss = 10640, Miss_rate = 0.800, Pending_hits = 44, Reservation_fails = 1024
L2_cache_bank[53]: Access = 13142, Miss = 10607, Miss_rate = 0.807, Pending_hits = 40, Reservation_fails = 3465
L2_cache_bank[54]: Access = 13122, Miss = 10643, Miss_rate = 0.811, Pending_hits = 41, Reservation_fails = 1159
L2_cache_bank[55]: Access = 13137, Miss = 10567, Miss_rate = 0.804, Pending_hits = 30, Reservation_fails = 3018
L2_cache_bank[56]: Access = 13240, Miss = 10652, Miss_rate = 0.805, Pending_hits = 42, Reservation_fails = 2444
L2_cache_bank[57]: Access = 13054, Miss = 10636, Miss_rate = 0.815, Pending_hits = 33, Reservation_fails = 6205
L2_cache_bank[58]: Access = 13286, Miss = 10641, Miss_rate = 0.801, Pending_hits = 46, Reservation_fails = 525
L2_cache_bank[59]: Access = 13032, Miss = 10582, Miss_rate = 0.812, Pending_hits = 36, Reservation_fails = 3635
L2_cache_bank[60]: Access = 13274, Miss = 10612, Miss_rate = 0.799, Pending_hits = 61, Reservation_fails = 312
L2_cache_bank[61]: Access = 13112, Miss = 10642, Miss_rate = 0.812, Pending_hits = 31, Reservation_fails = 4776
L2_cache_bank[62]: Access = 13220, Miss = 10612, Miss_rate = 0.803, Pending_hits = 44, Reservation_fails = 416
L2_cache_bank[63]: Access = 13233, Miss = 10642, Miss_rate = 0.804, Pending_hits = 31, Reservation_fails = 2338
L2_total_cache_accesses = 844931
L2_total_cache_misses = 680041
L2_total_cache_miss_rate = 0.8048
L2_total_cache_pending_hits = 2633
L2_total_cache_reservation_fails = 136336
L2_total_cache_breakdown:
	L2_cache_stats_breakdown[GLOBAL_ACC_R][HIT] = 154068
	L2_cache_stats_breakdown[GLOBAL_ACC_R][HIT_RESERVED] = 2633
	L2_cache_stats_breakdown[GLOBAL_ACC_R][MISS] = 167520
	L2_cache_stats_breakdown[GLOBAL_ACC_R][RESERVATION_FAIL] = 136336
	L2_cache_stats_breakdown[GLOBAL_ACC_R][SECTOR_MISS] = 502465
	L2_cache_stats_breakdown[LOCAL_ACC_R][HIT] = 0
	L2_cache_stats_breakdown[LOCAL_ACC_R][HIT_RESERVED] = 0
	L2_cache_stats_breakdown[LOCAL_ACC_R][MISS] = 0
	L2_cache_stats_breakdown[LOCAL_ACC_R][RESERVATION_FAIL] = 0
	L2_cache_stats_breakdown[LOCAL_ACC_R][SECTOR_MISS] = 0
	L2_cache_stats_breakdown[CONST_ACC_R][HIT] = 0
	L2_cache_stats_breakdown[CONST_ACC_R][HIT_RESERVED] = 0
	L2_cache_stats_breakdown[CONST_ACC_R][MISS] = 0
	L2_cache_stats_breakdown[CONST_ACC_R][RESERVATION_FAIL] = 0
	L2_cache_stats_breakdown[CONST_ACC_R][SECTOR_MISS] = 0
	L2_cache_stats_breakdown[TEXTURE_ACC_R][HIT] = 0
	L2_cache_stats_breakdown[TEXTURE_ACC_R][HIT_RESERVED] = 0
	L2_cache_stats_breakdown[TEXTURE_ACC_R][MISS] = 0
	L2_cache_stats_breakdown[TEXTURE_ACC_R][RESERVATION_FAIL] = 0
	L2_cache_stats_breakdown[TEXTURE_ACC_R][SECTOR_MISS] = 0
	L2_cache_stats_breakdown[GLOBAL_ACC_W][HIT] = 8189
	L2_cache_stats_breakdown[GLOBAL_ACC_W][HIT_RESERVED] = 0
	L2_cache_stats_breakdown[GLOBAL_ACC_W][MISS] = 2049
	L2_cache_stats_breakdown[GLOBAL_ACC_W][RESERVATION_FAIL] = 0
	L2_cache_stats_breakdown[GLOBAL_ACC_W][SECTOR_MISS] = 8007
	L2_cache_stats_breakdown[LOCAL_ACC_W][HIT] = 0
	L2_cache_stats_breakdown[LOCAL_ACC_W][HIT_RESERVED] = 0
	L2_cache_stats_breakdown[LOCAL_ACC_W][MISS] = 0
	L2_cache_stats_breakdown[LOCAL_ACC_W][RESERVATION_FAIL] = 0
	L2_cache_stats_breakdown[LOCAL_ACC_W][SECTOR_MISS] = 0
	L2_cache_stats_breakdown[L1_WRBK_ACC][HIT] = 0
	L2_cache_stats_breakdown[L1_WRBK_ACC][HIT_RESERVED] = 0
	L2_cache_stats_breakdown[L1_WRBK_ACC][MISS] = 0
	L2_cache_stats_breakdown[L1_WRBK_ACC][RESERVATION_FAIL] = 0
	L2_cache_stats_breakdown[L1_WRBK_ACC][SECTOR_MISS] = 0
	L2_cache_stats_breakdown[L2_WRBK_ACC][HIT] = 0
	L2_cache_stats_breakdown[L2_WRBK_ACC][HIT_RESERVED] = 0
	L2_cache_stats_breakdown[L2_WRBK_ACC][MISS] = 0
	L2_cache_stats_breakdown[L2_WRBK_ACC][RESERVATION_FAIL] = 0
	L2_cache_stats_breakdown[L2_WRBK_ACC][SECTOR_MISS] = 0
	L2_cache_stats_breakdown[INST_ACC_R][HIT] = 0
	L2_cache_stats_breakdown[INST_ACC_R][HIT_RESERVED] = 0
	L2_cache_stats_breakdown[INST_ACC_R][MISS] = 0
	L2_cache_stats_breakdown[INST_ACC_R][RESERVATION_FAIL] = 0
	L2_cache_stats_breakdown[INST_ACC_R][SECTOR_MISS] = 0
	L2_cache_stats_breakdown[L1_WR_ALLOC_R][HIT] = 0
	L2_cache_stats_breakdown[L1_WR_ALLOC_R][HIT_RESERVED] = 0
	L2_cache_stats_breakdown[L1_WR_ALLOC_R][MISS] = 0
	L2_cache_stats_breakdown[L1_WR_ALLOC_R][RESERVATION_FAIL] = 0
	L2_cache_stats_breakdown[L1_WR_ALLOC_R][SECTOR_MISS] = 0
	L2_cache_stats_breakdown[L2_WR_ALLOC_R][HIT] = 0
	L2_cache_stats_breakdown[L2_WR_ALLOC_R][HIT_RESERVED] = 0
	L2_cache_stats_breakdown[L2_WR_ALLOC_R][MISS] = 0
	L2_cache_stats_breakdown[L2_WR_ALLOC_R][RESERVATION_FAIL] = 0
	L2_cache_stats_breakdown[L2_WR_ALLOC_R][SECTOR_MISS] = 0
	L2_cache_stats_breakdown[GLOBAL_ACC_R][TOTAL_ACCESS] = 826686
	L2_cache_stats_breakdown[GLOBAL_ACC_W][TOTAL_ACCESS] = 18245
L2_total_cache_reservation_fail_breakdown:
	L2_cache_stats_fail_breakdown[GLOBAL_ACC_R][MSHR_ENRTY_FAIL] = 136336
L2_cache_data_port_util = 0.054
L2_cache_fill_port_util = 0.221

icnt_total_pkts_mem_to_simt=965461
icnt_total_pkts_simt_to_mem=981705
LD_mem_lat_dist  0 0 0 0 0 0 0 0 0 0 0 0 0 0 0 0 0 0 0 0 0 0 0 0 0 0 0
ST_mem_lat_dist  0 0 0 0 0 0 0 0 0 0 0 0 0 0 0 0 0 0 0 0 0 0 0 0 0 0 0
----------------------------Interconnect-DETAILS--------------------------------
Req_Network_injected_packets_num = 981705
Req_Network_cycles = 46944
Req_Network_injected_packets_per_cycle =      20.9123 
Req_Network_conflicts_per_cycle =      21.3105
Req_Network_conflicts_per_cycle_util =      24.2204
Req_Bank_Level_Parallism =      23.7667
Req_Network_in_buffer_full_per_cycle =       5.2001
Req_Network_in_buffer_avg_util =      73.4466
Req_Network_out_buffer_full_per_cycle =       0.2373
Req_Network_out_buffer_avg_util =      61.2360

Reply_Network_injected_packets_num = 965555
Reply_Network_cycles = 46944
Reply_Network_injected_packets_per_cycle =       20.5682
Reply_Network_conflicts_per_cycle =        6.9003
Reply_Network_conflicts_per_cycle_util =       7.9432
Reply_Bank_Level_Parallism =      23.6749
Reply_Network_in_buffer_full_per_cycle =       0.0000
Reply_Network_in_buffer_avg_util =       0.7044
Reply_Network_out_buffer_full_per_cycle =       0.0000
Reply_Network_out_buffer_avg_util =       0.2571
----------------------------END-of-Interconnect-DETAILS-------------------------


gpgpu_simulation_time = 0 days, 0 hrs, 7 min, 28 sec (448 sec)
gpgpu_simulation_rate = 89173 (inst/sec)
gpgpu_simulation_rate = 104 (cycle/sec)
gpgpu_silicon_slowdown = 10884615x
GPGPU-Sim: *** simulation thread exiting ***
GPGPU-Sim: ** break due to reaching the maximum cycles (or instructions) **
GPGPU-Sim: *** exit detected ***
