

        *** GPGPU-Sim Simulator Version 4.0.0  [build gpgpu-sim_git-commit-ffe0a1a00e984ecce9bf36e17ab94c4de0de8108_modified_0.0] ***


GPGPU-Sim PTX: simulation mode 0 (can change with PTX_SIM_MODE_FUNC environment variable:
               1=functional simulation only, 0=detailed performance simulator)
GPGPU-Sim PTX: overriding embedded ptx with ptx file (PTX_SIM_USE_PTX_FILE is set)
GPGPU-Sim: Configuration options:

-save_embedded_ptx                      0 # saves ptx files embedded in binary as <n>.ptx
-keep                                   0 # keep intermediate files created by GPGPU-Sim when interfacing with external programs
-gpgpu_ptx_save_converted_ptxplus                    0 # Saved converted ptxplus to a file
-gpgpu_occupancy_sm_number                   70 # The SM number to pass to ptxas when getting register usage for computing GPU occupancy. This parameter is required in the config.
-ptx_opcode_latency_int      4,13,4,5,145,21 # Opcode latencies for integers <ADD,MAX,MUL,MAD,DIV,SHFL>Default 1,1,19,25,145,32
-ptx_opcode_latency_fp          4,13,4,5,39 # Opcode latencies for single precision floating points <ADD,MAX,MUL,MAD,DIV>Default 1,1,1,1,30
-ptx_opcode_latency_dp         8,19,8,8,330 # Opcode latencies for double precision floating points <ADD,MAX,MUL,MAD,DIV>Default 8,8,8,8,335
-ptx_opcode_latency_sfu                  100 # Opcode latencies for SFU instructionsDefault 8
-ptx_opcode_latency_tesnor                   64 # Opcode latencies for Tensor instructionsDefault 64
-ptx_opcode_initiation_int          2,2,2,2,8,4 # Opcode initiation intervals for integers <ADD,MAX,MUL,MAD,DIV,SHFL>Default 1,1,4,4,32,4
-ptx_opcode_initiation_fp            2,2,2,2,4 # Opcode initiation intervals for single precision floating points <ADD,MAX,MUL,MAD,DIV>Default 1,1,1,1,5
-ptx_opcode_initiation_dp          4,4,4,4,130 # Opcode initiation intervals for double precision floating points <ADD,MAX,MUL,MAD,DIV>Default 8,8,8,8,130
-ptx_opcode_initiation_sfu                    8 # Opcode initiation intervals for sfu instructionsDefault 8
-ptx_opcode_initiation_tensor                   64 # Opcode initiation intervals for tensor instructionsDefault 64
-cdp_latency         7200,8000,100,12000,1600 # CDP API latency <cudaStreamCreateWithFlags, cudaGetParameterBufferV2_init_perWarp, cudaGetParameterBufferV2_perKernel, cudaLaunchDeviceV2_init_perWarp, cudaLaunchDevicV2_perKernel>Default 7200,8000,100,12000,1600
-network_mode                           2 # Interconnection network mode
-inter_config_file                   mesh # Interconnection network config file
-icnt_in_buffer_limit                  512 # in_buffer_limit
-icnt_out_buffer_limit                  512 # out_buffer_limit
-icnt_subnets                           2 # subnets
-icnt_arbiter_algo                      1 # arbiter_algo
-icnt_verbose                           0 # inct_verbose
-icnt_grant_cycles                      1 # grant_cycles
-gpgpu_ptx_use_cuobjdump                    1 # Use cuobjdump to extract ptx and sass from binaries
-gpgpu_experimental_lib_support                    0 # Try to extract code from cuda libraries [Broken because of unknown cudaGetExportTable]
-checkpoint_option                      0 #  checkpointing flag (0 = no checkpoint)
-checkpoint_kernel                      1 #  checkpointing during execution of which kernel (1- 1st kernel)
-checkpoint_CTA                         0 #  checkpointing after # of CTA (< less than total CTA)
-resume_option                          0 #  resume flag (0 = no resume)
-resume_kernel                          0 #  Resume from which kernel (1= 1st kernel)
-resume_CTA                             0 #  resume from which CTA 
-checkpoint_CTA_t                       0 #  resume from which CTA 
-checkpoint_insn_Y                      0 #  resume from which CTA 
-gpgpu_ptx_convert_to_ptxplus                    0 # Convert SASS (native ISA) to ptxplus and run ptxplus
-gpgpu_ptx_force_max_capability                   70 # Force maximum compute capability
-gpgpu_ptx_inst_debug_to_file                    0 # Dump executed instructions' debug information to file
-gpgpu_ptx_inst_debug_file       inst_debug.txt # Executed instructions' debug output file
-gpgpu_ptx_inst_debug_thread_uid                    1 # Thread UID for executed instructions' debug output
-gpgpu_n_mem_for_l2wb_pcommit                   32 # number of memory modules (e.g. memory controllers) in gpu
-gpgpu_n_sub_partition_per_mchannel_for_l2wb_pcommit                    2 # number of memory subpartition in each memory module
-gpgpu_dl2_bsize_for_l2wb_pcommit                  128 # default 128 bytes
-gpgpu_simd_model                       1 # 1 = post-dominator
-gpgpu_shader_core_pipeline              2048:32 # shader core pipeline config, i.e., {<nthread>:<warpsize>}
-gpgpu_tex_cache:l1  N:4:128:256,L:R:m:N:L,T:512:8,128:2 # per-shader L1 texture cache  (READ-ONLY) config  {<nsets>:<bsize>:<assoc>,<rep>:<wr>:<alloc>:<wr_alloc>,<mshr>:<N>:<merge>,<mq>:<rf>}
-gpgpu_const_cache:l1 N:128:64:8,L:R:f:N:L,S:2:64,4 # per-shader L1 constant memory cache  (READ-ONLY) config  {<nsets>:<bsize>:<assoc>,<rep>:<wr>:<alloc>:<wr_alloc>,<mshr>:<N>:<merge>,<mq>} 
-gpgpu_cache:il1     N:64:128:16,L:R:f:N:L,S:2:48,4 # shader L1 instruction cache config  {<nsets>:<bsize>:<assoc>,<rep>:<wr>:<alloc>:<wr_alloc>,<mshr>:<N>:<merge>,<mq>} 
-gpgpu_cache:dl1     S:1:128:256,L:L:s:N:L,A:256:8,16:0,32 # per-shader L1 data cache config  {<nsets>:<bsize>:<assoc>,<rep>:<wr>:<alloc>:<wr_alloc>,<mshr>:<N>:<merge>,<mq> | none}
-gpgpu_l1_banks                         4 # The number of L1 cache banks
-gpgpu_l1_banks_byte_interleaving                   32 # l1 banks byte interleaving granularity
-gpgpu_l1_banks_hashing_function                    0 # l1 banks hashing function
-gpgpu_l1_latency                      20 # L1 Hit Latency
-gpgpu_smem_latency                    20 # smem Latency
-gpgpu_cache:dl1PrefL1                 none # per-shader L1 data cache config  {<nsets>:<bsize>:<assoc>,<rep>:<wr>:<alloc>:<wr_alloc>,<mshr>:<N>:<merge>,<mq> | none}
-gpgpu_cache:dl1PrefShared                 none # per-shader L1 data cache config  {<nsets>:<bsize>:<assoc>,<rep>:<wr>:<alloc>:<wr_alloc>,<mshr>:<N>:<merge>,<mq> | none}
-gpgpu_gmem_skip_L1D                    0 # global memory access skip L1D cache (implements -Xptxas -dlcm=cg, default=no skip)
-gpgpu_perfect_mem                      0 # enable perfect memory mode (no cache miss)
-n_regfile_gating_group                    4 # group of lanes that should be read/written together)
-gpgpu_clock_gated_reg_file                    0 # enable clock gated reg file for power calculations
-gpgpu_clock_gated_lanes                    0 # enable clock gated lanes for power calculations
-gpgpu_shader_registers                65536 # Number of registers per shader core. Limits number of concurrent CTAs. (default 8192)
-gpgpu_registers_per_block                65536 # Maximum number of registers per CTA. (default 8192)
-gpgpu_ignore_resources_limitation                    0 # gpgpu_ignore_resources_limitation (default 0)
-gpgpu_shader_cta                      32 # Maximum number of concurrent CTAs in shader (default 8)
-gpgpu_num_cta_barriers                   16 # Maximum number of named barriers per CTA (default 16)
-gpgpu_n_clusters                      80 # number of processing clusters
-gpgpu_n_cores_per_cluster                    1 # number of simd cores per cluster
-gpgpu_n_cluster_ejection_buffer_size                   32 # number of packets in ejection buffer
-gpgpu_n_ldst_response_buffer_size                    2 # number of response packets in ld/st unit ejection buffer
-gpgpu_shmem_per_block                65536 # Size of shared memory per thread block or CTA (default 48kB)
-gpgpu_shmem_size                   98304 # Size of shared memory per shader core (default 16kB)
-gpgpu_adaptive_cache_config            536870913 # adaptive_cache_config
-gpgpu_shmem_sizeDefault                98304 # Size of shared memory per shader core (default 16kB)
-gpgpu_shmem_size_PrefL1                16384 # Size of shared memory per shader core (default 16kB)
-gpgpu_shmem_size_PrefShared                16384 # Size of shared memory per shader core (default 16kB)
-gpgpu_shmem_num_banks                   32 # Number of banks in the shared memory in each shader core (default 16)
-gpgpu_shmem_limited_broadcast                    0 # Limit shared memory to do one broadcast per cycle (default on)
-gpgpu_shmem_warp_parts                    1 # Number of portions a warp is divided into for shared memory bank conflict check 
-gpgpu_mem_unit_ports                    1 # The number of memory transactions allowed per core cycle
-gpgpu_shmem_warp_parts                    1 # Number of portions a warp is divided into for shared memory bank conflict check 
-gpgpu_warpdistro_shader                   -1 # Specify which shader core to collect the warp size distribution from
-gpgpu_warp_issue_shader                    0 # Specify which shader core to collect the warp issue distribution from
-gpgpu_local_mem_map                    1 # Mapping from local memory space address to simulated GPU physical address space (default = enabled)
-gpgpu_num_reg_banks                   16 # Number of register banks (default = 8)
-gpgpu_reg_bank_use_warp_id                    0 # Use warp ID in mapping registers to banks (default = off)
-gpgpu_sub_core_model                    1 # Sub Core Volta/Pascal model (default = off)
-gpgpu_enable_specialized_operand_collector                    0 # enable_specialized_operand_collector
-gpgpu_operand_collector_num_units_sp                    4 # number of collector units (default = 4)
-gpgpu_operand_collector_num_units_dp                    0 # number of collector units (default = 0)
-gpgpu_operand_collector_num_units_sfu                    4 # number of collector units (default = 4)
-gpgpu_operand_collector_num_units_int                    0 # number of collector units (default = 0)
-gpgpu_operand_collector_num_units_tensor_core                    4 # number of collector units (default = 4)
-gpgpu_operand_collector_num_units_mem                    2 # number of collector units (default = 2)
-gpgpu_operand_collector_num_units_gen                    8 # number of collector units (default = 0)
-gpgpu_operand_collector_num_in_ports_sp                    1 # number of collector unit in ports (default = 1)
-gpgpu_operand_collector_num_in_ports_dp                    0 # number of collector unit in ports (default = 0)
-gpgpu_operand_collector_num_in_ports_sfu                    1 # number of collector unit in ports (default = 1)
-gpgpu_operand_collector_num_in_ports_int                    0 # number of collector unit in ports (default = 0)
-gpgpu_operand_collector_num_in_ports_tensor_core                    1 # number of collector unit in ports (default = 1)
-gpgpu_operand_collector_num_in_ports_mem                    1 # number of collector unit in ports (default = 1)
-gpgpu_operand_collector_num_in_ports_gen                    8 # number of collector unit in ports (default = 0)
-gpgpu_operand_collector_num_out_ports_sp                    1 # number of collector unit in ports (default = 1)
-gpgpu_operand_collector_num_out_ports_dp                    0 # number of collector unit in ports (default = 0)
-gpgpu_operand_collector_num_out_ports_sfu                    1 # number of collector unit in ports (default = 1)
-gpgpu_operand_collector_num_out_ports_int                    0 # number of collector unit in ports (default = 0)
-gpgpu_operand_collector_num_out_ports_tensor_core                    1 # number of collector unit in ports (default = 1)
-gpgpu_operand_collector_num_out_ports_mem                    1 # number of collector unit in ports (default = 1)
-gpgpu_operand_collector_num_out_ports_gen                    8 # number of collector unit in ports (default = 0)
-gpgpu_coalesce_arch                   60 # Coalescing arch (GT200 = 13, Fermi = 20)
-gpgpu_num_sched_per_core                    4 # Number of warp schedulers per core
-gpgpu_max_insn_issue_per_warp                    1 # Max number of instructions that can be issued per warp in one cycle by scheduler (either 1 or 2)
-gpgpu_dual_issue_diff_exec_units                    1 # should dual issue use two different execution unit resources (Default = 1)
-gpgpu_simt_core_sim_order                    1 # Select the simulation order of cores in a cluster (0=Fix, 1=Round-Robin)
-gpgpu_pipeline_widths 4,4,4,4,4,4,4,4,4,4,8,4,4 # Pipeline widths ID_OC_SP,ID_OC_DP,ID_OC_INT,ID_OC_SFU,ID_OC_MEM,OC_EX_SP,OC_EX_DP,OC_EX_INT,OC_EX_SFU,OC_EX_MEM,EX_WB,ID_OC_TENSOR_CORE,OC_EX_TENSOR_CORE
-gpgpu_tensor_core_avail                    1 # Tensor Core Available (default=0)
-gpgpu_num_sp_units                     4 # Number of SP units (default=1)
-gpgpu_num_dp_units                     4 # Number of DP units (default=0)
-gpgpu_num_int_units                    4 # Number of INT units (default=0)
-gpgpu_num_sfu_units                    4 # Number of SF units (default=1)
-gpgpu_num_tensor_core_units                    4 # Number of tensor_core units (default=1)
-gpgpu_num_mem_units                    1 # Number if ldst units (default=1) WARNING: not hooked up to anything
-gpgpu_scheduler                      gto # Scheduler configuration: < lrr | gto | two_level_active > If two_level_active:<num_active_warps>:<inner_prioritization>:<outer_prioritization>For complete list of prioritization values see shader.h enum scheduler_prioritization_typeDefault: gto
-gpgpu_concurrent_kernel_sm                    0 # Support concurrent kernels on a SM (default = disabled)
-gpgpu_perfect_inst_const_cache                    1 # perfect inst and const cache mode, so all inst and const hits in the cache(default = disabled)
-gpgpu_inst_fetch_throughput                    4 # the number of fetched intruction per warp each cycle
-gpgpu_reg_file_port_throughput                    2 # the number ports of the register file
-specialized_unit_1         0,4,4,4,4,BRA # specialized unit config {<enabled>,<num_units>:<latency>:<initiation>,<ID_OC_SPEC>:<OC_EX_SPEC>,<NAME>}
-specialized_unit_2         0,4,4,4,4,BRA # specialized unit config {<enabled>,<num_units>:<latency>:<initiation>,<ID_OC_SPEC>:<OC_EX_SPEC>,<NAME>}
-specialized_unit_3         0,4,4,4,4,BRA # specialized unit config {<enabled>,<num_units>:<latency>:<initiation>,<ID_OC_SPEC>:<OC_EX_SPEC>,<NAME>}
-specialized_unit_4         0,4,4,4,4,BRA # specialized unit config {<enabled>,<num_units>:<latency>:<initiation>,<ID_OC_SPEC>:<OC_EX_SPEC>,<NAME>}
-specialized_unit_5         0,4,4,4,4,BRA # specialized unit config {<enabled>,<num_units>:<latency>:<initiation>,<ID_OC_SPEC>:<OC_EX_SPEC>,<NAME>}
-specialized_unit_6         0,4,4,4,4,BRA # specialized unit config {<enabled>,<num_units>:<latency>:<initiation>,<ID_OC_SPEC>:<OC_EX_SPEC>,<NAME>}
-specialized_unit_7         0,4,4,4,4,BRA # specialized unit config {<enabled>,<num_units>:<latency>:<initiation>,<ID_OC_SPEC>:<OC_EX_SPEC>,<NAME>}
-specialized_unit_8         0,4,4,4,4,BRA # specialized unit config {<enabled>,<num_units>:<latency>:<initiation>,<ID_OC_SPEC>:<OC_EX_SPEC>,<NAME>}
-gpgpu_perf_sim_memcpy                    1 # Fill the L2 cache on memcpy
-gpgpu_simple_dram_model                    0 # simple_dram_model with fixed latency and BW
-gpgpu_dram_scheduler                    1 # 0 = fifo, 1 = FR-FCFS (defaul)
-gpgpu_dram_partition_queues          64:64:64:64 # i2$:$2d:d2$:$2i
-l2_ideal                               0 # Use a ideal L2 cache that always hit
-gpgpu_cache:dl2     S:32:128:24,L:B:m:L:P,A:192:4,32:0,32 # unified banked L2 data cache config  {<nsets>:<bsize>:<assoc>,<rep>:<wr>:<alloc>:<wr_alloc>,<mshr>:<N>:<merge>,<mq>}
-gpgpu_cache:dl2_texture_only                    0 # L2 cache used for texture only
-gpgpu_n_mem                           32 # number of memory modules (e.g. memory controllers) in gpu
-gpgpu_n_sub_partition_per_mchannel                    2 # number of memory subpartition in each memory module
-gpgpu_n_mem_per_ctrlr                    1 # number of memory chips per memory controller
-gpgpu_memlatency_stat                   14 # track and display latency statistics 0x2 enables MC, 0x4 enables queue logs
-gpgpu_frfcfs_dram_sched_queue_size                   64 # 0 = unlimited (default); # entries per chip
-gpgpu_dram_return_queue_size                  192 # 0 = unlimited (default); # entries per chip
-gpgpu_dram_buswidth                   16 # default = 4 bytes (8 bytes per cycle at DDR)
-gpgpu_dram_burst_length                    2 # Burst length of each DRAM request (default = 4 data bus cycle)
-dram_data_command_freq_ratio                    2 # Frequency ratio between DRAM data bus and command bus (default = 2 times, i.e. DDR)
-gpgpu_dram_timing_opt nbk=16:CCD=1:RRD=3:RCD=12:RAS=28:RP=12:RC=40: CL=12:WL=2:CDLR=3:WR=10:nbkgrp=4:CCDL=2:RTPL=3 # DRAM timing parameters = {nbk:tCCD:tRRD:tRCD:tRAS:tRP:tRC:CL:WL:tCDLR:tWR:nbkgrp:tCCDL:tRTPL}
-gpgpu_l2_rop_latency                  160 # ROP queue latency (default 85)
-dram_latency                         200 # DRAM latency (default 30)
-dram_write_latency                   600 # DRAM write latency (default 100)
-dram_dual_bus_interface                    1 # dual_bus_interface (default = 0) 
-dram_bnk_indexing_policy                    0 # dram_bnk_indexing_policy (0 = normal indexing, 1 = Xoring with the higher bits) (Default = 0)
-dram_bnkgrp_indexing_policy                    1 # dram_bnkgrp_indexing_policy (0 = take higher bits, 1 = take lower bits) (Default = 0)
-dram_seperate_write_queue_enable                    0 # Seperate_Write_Queue_Enable
-dram_write_queue_size             32:28:16 # Write_Queue_Size
-dram_elimnate_rw_turnaround                    0 # elimnate_rw_turnaround i.e set tWTR and tRTW = 0
-icnt_flit_size                        40 # icnt_flit_size
-gpgpu_mem_addr_mapping dramid@8;00000000.00000000.00000000.00000000.0000RRRR.RRRRRRRR.RBBBCCCB.CCCSSSSS # mapping memory address to dram model {dramid@<start bit>;<memory address map>}
-gpgpu_mem_addr_test                    0 # run sweep test to check address mapping for aliased address
-gpgpu_mem_address_mask                    1 # 0 = old addressing mask, 1 = new addressing mask, 2 = new add. mask + flipped bank sel and chip sel bits
-gpgpu_memory_partition_indexing                    0 # 0 = no indexing, 1 = bitwise xoring, 2 = IPoly, 3 = custom indexing
-gpuwattch_xml_file         gpuwattch.xml # GPUWattch XML file
-power_simulation_enabled                    0 # Turn on power simulator (1=On, 0=Off)
-power_per_cycle_dump                    0 # Dump detailed power output each cycle
-power_trace_enabled                    0 # produce a file for the power trace (1=On, 0=Off)
-power_trace_zlevel                     6 # Compression level of the power trace output log (0=no comp, 9=highest)
-steady_power_levels_enabled                    0 # produce a file for the steady power levels (1=On, 0=Off)
-steady_state_definition                  8:4 # allowed deviation:number of samples
-gpgpu_max_cycle                        0 # terminates gpu simulation early (0 = no limit)
-gpgpu_max_insn                         0 # terminates gpu simulation early (0 = no limit)
-gpgpu_max_cta                          0 # terminates gpu simulation early (0 = no limit)
-gpgpu_max_completed_cta                  256 # terminates gpu simulation early (0 = no limit)
-gpgpu_runtime_stat                   500 # display runtime statistics such as dram utilization {<freq>:<flag>}
-liveness_message_freq                    1 # Minimum number of seconds between simulation liveness messages (0 = always print)
-gpgpu_compute_capability_major                    7 # Major compute capability version number
-gpgpu_compute_capability_minor                    0 # Minor compute capability version number
-gpgpu_flush_l1_cache                    1 # Flush L1 cache at the end of each kernel call
-gpgpu_flush_l2_cache                    0 # Flush L2 cache at the end of each kernel call
-gpgpu_deadlock_detect                    1 # Stop the simulation at deadlock (1=on (default), 0=off)
-gpgpu_ptx_instruction_classification                    0 # if enabled will classify ptx instruction types per kernel (Max 255 kernels now)
-gpgpu_ptx_sim_mode                     0 # Select between Performance (default) or Functional simulation (1)
-gpgpu_clock_domains 1132.0:1132.0:1132.0:850.0 # Clock Domain Frequencies in MhZ {<Core Clock>:<ICNT Clock>:<L2 Clock>:<DRAM Clock>}
-gpgpu_max_concurrent_kernel                    8 # maximum kernels that can run concurrently on GPU
-gpgpu_cflog_interval                    0 # Interval between each snapshot in control flow logger
-visualizer_enabled               e2c96ab854920b9b814ed0b032e65335  /home/pli11/Videos/parboil_benchmark/parboil/benchmarks/spmv/build/nvm_default/spmv
Extracting PTX file and ptxas options    1: spmv.1.sm_70.ptx -arch=sm_70
      0 # Turn on visualizer output (1=On, 0=Off)
-visualizer_outputfile                 NULL # Specifies the output log file for visualizer
-visualizer_zlevel                      6 # Compression level of the visualizer output log (0=no comp, 9=highest)
-gpgpu_stack_size_limit                 1024 # GPU thread stack size
-gpgpu_heap_size_limit              8388608 # GPU malloc heap size 
-gpgpu_runtime_sync_depth_limit                    2 # GPU device runtime synchronize depth
-gpgpu_runtime_pending_launch_count_limit                 2048 # GPU device runtime pending launch count
-trace_enabled                          0 # Turn on traces
-trace_components                    none # comma seperated list of traces to enable. Complete list found in trace_streams.tup. Default none
-trace_sampling_core                    0 # The core which is printed using CORE_DPRINTF. Default 0
-trace_sampling_memory_partition                   -1 # The memory partition which is printed using MEMPART_DPRINTF. Default -1 (i.e. all)
-enable_ptx_file_line_stats                    1 # Turn on PTX source line statistic profiling. (1 = On)
-ptx_line_stats_filename gpgpu_inst_stats.txt # Output file for PTX source line statistics.
-gpgpu_kernel_launch_latency                 5000 # Kernel launch latency in cycles. Default: 0
-gpgpu_cdp_enabled                      0 # Turn on CDP
-gpgpu_TB_launch_latency                    0 # thread block launch latency in cycles. Default: 0
DRAM Timing Options:
nbk                                    16 # number of banks
CCD                                     1 # column to column delay
RRD                                     3 # minimal delay between activation of rows in different banks
RCD                                    12 # row to column delay
RAS                                    28 # time needed to activate row
RP                                     12 # time needed to precharge (deactivate) row
RC                                     40 # row cycle time
CDLR                                    3 # switching from write to read (changes tWTR)
WR                                     10 # last data-in to row precharge
CL                                     12 # CAS latency
WL                                      2 # Write latency
nbkgrp                                  4 # number of bank groups
CCDL                                    2 # column to column delay between accesses to different bank groups
RTPL                                    3 # read to precharge delay between accesses to different bank groups
Total number of memory sub partition = 64
addr_dec_mask[CHIP]  = 0000000000001f00 	high:13 low:8
addr_dec_mask[BK]    = 00000000000e2000 	high:20 low:13
addr_dec_mask[ROW]   = 00000001fff00000 	high:33 low:20
addr_dec_mask[COL]   = 000000000001c0ff 	high:17 low:0
addr_dec_mask[BURST] = 000000000000001f 	high:5 low:0
sub_partition_id_mask = 0000000000002000
GPGPU-Sim uArch: clock freqs: 1132000000.000000:1132000000.000000:1132000000.000000:850000000.000000
GPGPU-Sim uArch: clock periods: 0.00000000088339222615:0.00000000088339222615:0.00000000088339222615:0.00000000117647058824
*** Initializing Memory Statistics ***
GPGPU-Sim uArch: performance model initialization complete.
self exe links to: /home/pli11/Videos/parboil_benchmark/parboil/benchmarks/spmv/build/nvm_default/spmv
self exe links to: /home/pli11/Videos/parboil_benchmark/parboil/benchmarks/spmv/build/nvm_default/spmv
10.1
GPGPU-Sim PTX: __cudaRegisterFatBinary, fat_cubin_handle = 1, filename=default
self exe links to: /home/pli11/Videos/parboil_benchmark/parboil/benchmarks/spmv/build/nvm_default/spmv
Running md5sum using "md5sum /home/pli11/Videos/parboil_benchmark/parboil/benchmarks/spmv/build/nvm_default/spmv "
self exe links to: /home/pli11/Videos/parboil_benchmark/parboil/benchmarks/spmv/build/nvm_default/spmv
Extracting specific PTX file named spmv.1.sm_70.ptx 
GPGPU-Sim PTX: __cudaRegisterFunction _Z13spmv_jds_nvmbPfPKfPKiS3_S1_S3_i : hostFun 0x0x40402b, fat_cubin_handle = 1
GPGPU-Sim PTX: Parsing spmv.1.sm_70.ptx
GPGPU-Sim PTX: allocating global region for "tex_x_float" from 0x100 to 0x104 (global memory space)
GPGPU-Sim PTX: allocating constant region for "jds_ptr_int" from 0x180 to 0x4fa0 (global memory space) 1
GPGPU-Sim PTX: allocating constant region for "sh_zcnt_int" from 0x5000 to 0x9e20 (global memory space) 2
GPGPU-Sim PTX: allocating global region for "NVM_log" from 0x9e80 to 0x4009e80 (global memory space)
GPGPU-Sim PTX: allocating global region for "NVM_flag" from 0x4009e80 to 0x4409e80 (global memory space)
GPGPU-Sim PTX: instruction assembly for function '_Z13spmv_jds_nvmoPfPKfPKiS3_S1_S3_i'...   done.
GPGPU-Sim PTX: instruction assembly for function '_Z13spmv_jds_nvmuPfPKfPKiS3_S1_S3_i'...   done.
GPGPU-Sim PTX: instruction assembly for function '_Z13spmv_jds_nvm1PfPKfPKiS3_S1_S3_i'...   done.
GPGPU-Sim PTX: instruction assembly for function '_Z13spmv_jds_nvm2PfPKfPKiS3_S1_S3_i'...   done.
GPGPU-Sim PTX: instruction assembly for function '_Z13spmv_jds_nvmgPfPKfPKiS3_S1_S3_i'...   done.
GPGPU-Sim PTX: instruction assembly for function '_Z13spmv_jds_nvm3PfPKfPKiS3_S1_S3_i'...   done.
GPGPU-Sim PTX: instruction assembly for function '_Z13spmv_jds_nvm4PfPKfPKiS3_S1_S3_i'...   done.
GPGPU-Sim PTX: instruction assembly for function '_Z13spmv_jds_nvmiPfPKfPKiS3_S1_S3_i'...   done.
GPGPU-Sim PTX: instruction assembly for function '_Z13spmv_jds_nvm6PfPKfPKiS3_S1_S3_i'...   done.
GPGPU-Sim PTX: instruction assembly for function '_Z13spmv_jds_nvm5PfPKfPKiS3_S1_S3_i'...   done.
GPGPU-Sim PTX: instruction assembly for function '_Z8spmv_jdsPfPKfPKiS3_S1_S3_i'...   done.
GPGPU-Sim PTX: instruction assembly for function '_Z13spmv_jds_nvmbPfPKfPKiS3_S1_S3_i'...   done.
GPGPU-Sim PTX: finished parsing EMBEDDED .ptx file spmv.1.sm_70.ptx
GPGPU-Sim PTX: loading globals with explicit initializers... 
GPGPU-Sim PTX: finished loading globals (0 bytes total).
GPGPU-Sim PTX: loading constants with explicit initializers...  done.
GPGPU-Sim PTX: Loading PTXInfo from spmv.1.sm_70.ptx
GPGPU-Sim PTX: Binary info : gmem=71303168, cmem=40000
GPGPU-Sim PTX: Kernel '_Z13spmv_jds_nvmbPfPKfPKiS3_S1_S3_i' : regs=31, lmem=0, smem=0, cmem=412
GPGPU-Sim PTX: Kernel '_Z8spmv_jdsPfPKfPKiS3_S1_S3_i' : regs=31, lmem=0, smem=0, cmem=412
GPGPU-Sim PTX: Kernel '_Z13spmv_jds_nvm5PfPKfPKiS3_S1_S3_i' : regs=32, lmem=0, smem=0, cmem=412
GPGPU-Sim PTX: Kernel '_Z13spmv_jds_nvm6PfPKfPKiS3_S1_S3_i' : regs=32, lmem=0, smem=0, cmem=412
GPGPU-Sim PTX: Kernel '_Z13spmv_jds_nvmiPfPKfPKiS3_S1_S3_i' : regs=32, lmem=0, smem=0, cmem=412
GPGPU-Sim PTX: Kernel '_Z13spmv_jds_nvm4PfPKfPKiS3_S1_S3_i' : regs=32, lmem=0, smem=0, cmem=412
GPGPU-Sim PTX: Kernel '_Z13spmv_jds_nvm3PfPKfPKiS3_S1_S3_i' : regs=32, lmem=0, smem=0, cmem=412
GPGPU-Sim PTX: Kernel '_Z13spmv_jds_nvmgPfPKfPKiS3_S1_S3_i' : regs=32, lmem=0, smem=0, cmem=412
GPGPU-Sim PTX: Kernel '_Z13spmv_jds_nvm2PfPKfPKiS3_S1_S3_i' : regs=31, lmem=0, smem=0, cmem=412
GPGPU-Sim PTX: Kernel '_Z13spmv_jds_nvm1PfPKfPKiS3_S1_S3_i' : regs=31, lmem=0, smem=0, cmem=412
GPGPU-Sim PTX: Kernel '_Z13spmv_jds_nvmuPfPKfPKiS3_S1_S3_i' : regs=31, lmem=0, smem=0, cmem=412
GPGPU-Sim PTX: Kernel '_Z13spmv_jds_nvmoPfPKfPKiS3_S1_S3_i' : regs=31, lmem=0, smem=0, cmem=412
GPGPU-Sim PTX: __cudaRegisterFunction _Z8spmv_jdsPfPKfPKiS3_S1_S3_i : hostFun 0x0x403e2e, fat_cubin_handle = 1
GPGPU-Sim PTX: __cudaRegisterFunction _Z13spmv_jds_nvm5PfPKfPKiS3_S1_S3_i : hostFun 0x0x403c31, fat_cubin_handle = 1
GPGPU-Sim PTX: __cudaRegisterFunction _Z13spmv_jds_nvm6PfPKfPKiS3_S1_S3_i : hostFun 0x0x403a34, fat_cubin_handle = 1
GPGPU-Sim PTX: __cudaRegisterFunction _Z13spmv_jds_nvmiPfPKfPKiS3_S1_S3_i : hostFun 0x0x403837, fat_cubin_handle = 1
GPGPU-Sim PTX: __cudaRegisterFunction _Z13spmv_jds_nvm4PfPKfPKiS3_S1_S3_i : hostFun 0x0x40363a, fat_cubin_handle = 1
GPGPU-Sim PTX: __cudaRegisterFunction _Z13spmv_jds_nvm3PfPKfPKiS3_S1_S3_i : hostFun 0x0x40343d, fat_cubin_handle = 1
GPGPU-Sim PTX: __cudaRegisterFunction _Z13spmv_jds_nvmgPfPKfPKiS3_S1_S3_i : hostFun 0x0x403240, fat_cubin_handle = 1
GPGPU-Sim PTX: __cudaRegisterFunction _Z13spmv_jds_nvm2PfPKfPKiS3_S1_S3_i : hostFun 0x0x403043, fat_cubin_handle = 1
GPGPU-Sim PTX: __cudaRegisterFunction _Z13spmv_jds_nvm1PfPKfPKiS3_S1_S3_i : hostFun 0x0x402e46, fat_cubin_handle = 1
GPGPU-Sim PTX: __cudaRegisterFunction _Z13spmv_jds_nvmuPfPKfPKiS3_S1_S3_i : hostFun 0x0x402c49, fat_cubin_handle = 1
GPGPU-Sim PTX: __cudaRegisterFunction _Z13spmv_jds_nvmoPfPKfPKiS3_S1_S3_i : hostFun 0x0x402a4c, fat_cubin_handle = 1
GPGPU-Sim PTX: in __cudaRegisterTexture:
GPGPU-Sim PTX:   int dim = 1
GPGPU-Sim PTX:   int norm = 0
GPGPU-Sim PTX:   int ext = 0
GPGPU-Sim PTX:   Execution warning: Not finished implementing "void __cudaRegisterTextureInternal(void**, const textureReference*, const void**, const char*, int, int, int, gpgpu_context*)"
GPGPU-Sim PTX: __cudaRegisterVar: hostVar = 0x60e2e0; deviceAddress = jds_ptr_int; deviceName = jds_ptr_int
GPGPU-Sim PTX: __cudaRegisterVar: Registering const memory space of 20000 bytes
GPGPU-Sim PTX registering constant jds_ptr_int (20000 bytes) to name mapping
GPGPU-Sim PTX: __cudaRegisterVar: hostVar = 0x613100; deviceAddress = sh_zcnt_int; deviceName = sh_zcnt_int
GPGPU-Sim PTX: __cudaRegisterVar: Registering const memory space of 20000 bytes
GPGPU-Sim PTX registering constant sh_zcnt_int (20000 bytes) to name mapping
GPGPU-Sim PTX: __cudaRegisterVar: hostVar = 0x617f20; deviceAddress = NVM_log; deviceName = NVM_log
GPGPU-Sim PTX: __cudaRegisterVar: Registering const memory space of 67108864 bytes
GPGPU-Sim PTX registering global NVM_log hostVar to name mapping
GPGPU-Sim PTX: __cudaRegisterVar: hostVar = 0x4617f20; deviceAddress = NVM_flag; deviceName = NVM_flag
GPGPU-Sim PTX: __cudaRegisterVar: Registering const memory space of 4194304 bytes
GPGPU-Sim PTX registering global NVM_flag hostVar to name mapping
/home/pli11/Videos/parboil_benchmark/parboil/benchmarks/spmv/build/nvm_default/spmv -i /home/pli11/Videos/parboil_benchmark/parboil/datasets/spmv/large/input/Dubcova3.mtx.bin,/home/pli11/Videos/parboil_benchmark/parboil/datasets/spmv/large/input/vector.bin -o /home/pli11/Videos/parboil_benchmark/parboil/benchmarks/spmv/run/large/Dubcova3.mtx.out 
CUDA accelerated sparse matrix vector multiplication****
Original version by Li-Wen Chang <lchang20@illinois.edu> and Shengzhao Wu<wu14@illinois.edu>
This version maintained by Chris Rodrigues  ***********
Converting COO to JDS format (146689x146689)
3636649 matrix entries, warp size = 32, row padding align = 1, pack size = 1

Padding data....146720 rows, 4585 groups
Allocating data space: 3637664 entries (0.027903% padding)
Finished converting.
JDS format has 146720 columns, 49 rows.
nz_count_len = 4585
GPGPU-Sim PTX: cudaMemcpyToSymbol: symbol = 0x60e2e0
GPGPU-Sim PTX: starting gpgpu_ptx_sim_memcpy_symbol with hostVar 0x0x60e2e0
GPGPU-Sim PTX: gpgpu_ptx_sim_memcpy_symbol: Found PTX symbol w/ hostVar=0x60e2e0
GPGPU-Sim PTX: gpgpu_ptx_sim_memcpy_symbol: copying const memory 200 bytes  to  symbol jds_ptr_int+0 @0x180 ...
GPGPU-Sim PTX: cudaMemcpyToSymbol: symbol = 0x613100
GPGPU-Sim PTX: starting gpgpu_ptx_sim_memcpy_symbol with hostVar 0x0x613100
GPGPU-Sim PTX: gpgpu_ptx_sim_memcpy_symbol: Found PTX symbol w/ hostVar=0x613100
GPGPU-Sim PTX: gpgpu_ptx_sim_memcpy_symbol: copying const memory 18340 bytes  to  symbol sh_zcnt_int+0 @0x5000 ...
GPGPU-Sim: synchronize waiting for inactive GPU simulation
GPGPU-Sim API: Stream Manager State
GPGPU-Sim: detected inactive GPU simulation thread
event update
GPGPU-Sim: synchronize waiting for inactive GPU simulation
GPGPU-Sim API: Stream Manager State
GPGPU-Sim: detected inactive GPU simulation thread
GPGPU-Sim PTX: Setting up arguments for 8 bytes starting at 0x7fff53471ff8..
GPGPU-Sim PTX: Setting up arguments for 8 bytes starting at 0x7fff53471ff0..
GPGPU-Sim PTX: Setting up arguments for 8 bytes starting at 0x7fff53471fe8..
GPGPU-Sim PTX: Setting up arguments for 8 bytes starting at 0x7fff53471fe0..
GPGPU-Sim PTX: Setting up arguments for 8 bytes starting at 0x7fff53471fd8..
GPGPU-Sim PTX: Setting up arguments for 8 bytes starting at 0x7fff53471fd0..
GPGPU-Sim PTX: Setting up arguments for 4 bytes starting at 0x7fff53472090..

GPGPU-Sim PTX: cudaLaunch for 0x0x403043 (mode=performance simulation) on stream 0
GPGPU-Sim PTX: finding reconvergence points for '_Z13spmv_jds_nvm2PfPKfPKiS3_S1_S3_i'...
GPGPU-Sim PTX: Finding dominators for '_Z13spmv_jds_nvm2PfPKfPKiS3_S1_S3_i'...
GPGPU-Sim PTX: Finding immediate dominators for '_Z13spmv_jds_nvm2PfPKfPKiS3_S1_S3_i'...
GPGPU-Sim PTX: Finding postdominators for '_Z13spmv_jds_nvm2PfPKfPKiS3_S1_S3_i'...
GPGPU-Sim PTX: Finding immediate postdominators for '_Z13spmv_jds_nvm2PfPKfPKiS3_S1_S3_i'...
GPGPU-Sim PTX: pre-decoding instructions for '_Z13spmv_jds_nvm2PfPKfPKiS3_S1_S3_i'...
GPGPU-Sim PTX: reconvergence points for _Z13spmv_jds_nvm2PfPKfPKiS3_S1_S3_i...
GPGPU-Sim PTX:  1 (potential) branch divergence @  PC=0x12b0 (spmv.1.sm_70.ptx:805) @%p1 bra BB3_20;
GPGPU-Sim PTX:    immediate post dominator      @  PC=0x1890 (spmv.1.sm_70.ptx:1035) ret;
GPGPU-Sim PTX:  2 (potential) branch divergence @  PC=0x1358 (spmv.1.sm_70.ptx:827) @%p2 bra BB3_17;
GPGPU-Sim PTX:    immediate post dominator      @  PC=0x17b8 (spmv.1.sm_70.ptx:995) fma.rn.f32 %f38, %f48, %f49, %f46;
GPGPU-Sim PTX:  3 (potential) branch divergence @  PC=0x13b0 (spmv.1.sm_70.ptx:839) @%p3 bra BB3_3;
GPGPU-Sim PTX:    immediate post dominator      @  PC=0x17a8 (spmv.1.sm_70.ptx:991) ld.global.f32 %f48, [%rd117];
GPGPU-Sim PTX:  4 (potential) branch divergence @  PC=0x13e8 (spmv.1.sm_70.ptx:847) @%p4 bra BB3_5;
GPGPU-Sim PTX:    immediate post dominator      @  PC=0x15e8 (spmv.1.sm_70.ptx:930) setp.lt.u32%p7, %r29, 4;
GPGPU-Sim PTX:  5 (potential) branch divergence @  PC=0x1400 (spmv.1.sm_70.ptx:851) @%p5 bra BB3_7;
GPGPU-Sim PTX:    immediate post dominator      @  PC=0x1558 (spmv.1.sm_70.ptx:910) mul.wide.s32 %rd68, %r86, 4;
GPGPU-Sim PTX:  6 (potential) branch divergence @  PC=0x1408 (spmv.1.sm_70.ptx:852) bra.uni BB3_8;
GPGPU-Sim PTX:    immediate post dominator      @  PC=0x1450 (spmv.1.sm_70.ptx:869) setp.eq.s32%p6, %r30, 2;
GPGPU-Sim PTX:  7 (potential) branch divergence @  PC=0x1418 (spmv.1.sm_70.ptx:856) bra.uni BB3_12;
GPGPU-Sim PTX:    immediate post dominator      @  PC=0x1558 (spmv.1.sm_70.ptx:910) mul.wide.s32 %rd68, %r86, 4;
GPGPU-Sim PTX:  8 (potential) branch divergence @  PC=0x1430 (spmv.1.sm_70.ptx:861) bra.uni BB3_16;
GPGPU-Sim PTX:    immediate post dominator      @  PC=0x17a8 (spmv.1.sm_70.ptx:991) ld.global.f32 %f48, [%rd117];
GPGPU-Sim PTX:  9 (potential) branch divergence @  PC=0x1448 (spmv.1.sm_70.ptx:866) bra.uni BB3_13;
GPGPU-Sim PTX:    immediate post dominator      @  PC=0x15e8 (spmv.1.sm_70.ptx:930) setp.lt.u32%p7, %r29, 4;
GPGPU-Sim PTX: 10 (potential) branch divergence @  PC=0x1460 (spmv.1.sm_70.ptx:871) @%p6 bra BB3_9;
GPGPU-Sim PTX:    immediate post dominator      @  PC=0x14e0 (spmv.1.sm_70.ptx:893) mul.wide.s32 %rd59, %r85, 4;
GPGPU-Sim PTX: 11 (potential) branch divergence @  PC=0x1468 (spmv.1.sm_70.ptx:872) bra.uni BB3_10;
GPGPU-Sim PTX:    immediate post dominator      @  PC=0x1480 (spmv.1.sm_70.ptx:879) ld.global.f32 %f21, [%rd2];
GPGPU-Sim PTX: 12 (potential) branch divergence @  PC=0x1478 (spmv.1.sm_70.ptx:876) bra.uni BB3_11;
GPGPU-Sim PTX:    immediate post dominator      @  PC=0x14e0 (spmv.1.sm_70.ptx:893) mul.wide.s32 %rd59, %r85, 4;
GPGPU-Sim PTX: 13 (potential) branch divergence @  PC=0x15f0 (spmv.1.sm_70.ptx:931) @%p7 bra BB3_16;
GPGPU-Sim PTX:    immediate post dominator      @  PC=0x17a8 (spmv.1.sm_70.ptx:991) ld.global.f32 %f48, [%rd117];
GPGPU-Sim PTX: 14 (potential) branch divergence @  PC=0x17a0 (spmv.1.sm_70.ptx:988) @%p8 bra BB3_15;
GPGPU-Sim PTX:    immediate post dominator      @  PC=0x17a8 (spmv.1.sm_70.ptx:991) ld.global.f32 %f48, [%rd117];
GPGPU-Sim PTX: 15 (potential) branch divergence @  PC=0x1848 (spmv.1.sm_70.ptx:1013) @%p9 bra BB3_19;
GPGPU-Sim PTX:    immediate post dominator      @  PC=0x1868 (spmv.1.sm_70.ptx:1023) membar.gl;
GPGPU-Sim PTX: ... end of reconvergence points for _Z13spmv_jds_nvm2PfPKfPKiS3_S1_S3_i
GPGPU-Sim PTX: ... done pre-decoding instructions for '_Z13spmv_jds_nvm2PfPKfPKiS3_S1_S3_i'.
GPGPU-Sim PTX: pushing kernel '_Z13spmv_jds_nvm2PfPKfPKiS3_S1_S3_i' to stream 0, gridDim= (765,1,1) blockDim = (192,1,1) 
GPGPU-Sim uArch: Shader 0 bind to kernel 1 '_Z13spmv_jds_nvm2PfPKfPKiS3_S1_S3_i'
GPGPU-Sim uArch: CTA/core = 10, limited by: threads regs
GPGPU-Sim: Reconfigure L1 cache to 128KB
GPGPU-Sim uArch: Shader 1 bind to kernel 1 '_Z13spmv_jds_nvm2PfPKfPKiS3_S1_S3_i'
GPGPU-Sim uArch: Shader 2 bind to kernel 1 '_Z13spmv_jds_nvm2PfPKfPKiS3_S1_S3_i'
GPGPU-Sim uArch: Shader 3 bind to kernel 1 '_Z13spmv_jds_nvm2PfPKfPKiS3_S1_S3_i'
GPGPU-Sim uArch: Shader 4 bind to kernel 1 '_Z13spmv_jds_nvm2PfPKfPKiS3_S1_S3_i'
GPGPU-Sim uArch: Shader 5 bind to kernel 1 '_Z13spmv_jds_nvm2PfPKfPKiS3_S1_S3_i'
GPGPU-Sim uArch: Shader 6 bind to kernel 1 '_Z13spmv_jds_nvm2PfPKfPKiS3_S1_S3_i'
GPGPU-Sim uArch: Shader 7 bind to kernel 1 '_Z13spmv_jds_nvm2PfPKfPKiS3_S1_S3_i'
GPGPU-Sim uArch: Shader 8 bind to kernel 1 '_Z13spmv_jds_nvm2PfPKfPKiS3_S1_S3_i'
GPGPU-Sim uArch: Shader 9 bind to kernel 1 '_Z13spmv_jds_nvm2PfPKfPKiS3_S1_S3_i'
GPGPU-Sim uArch: Shader 10 bind to kernel 1 '_Z13spmv_jds_nvm2PfPKfPKiS3_S1_S3_i'
GPGPU-Sim uArch: Shader 11 bind to kernel 1 '_Z13spmv_jds_nvm2PfPKfPKiS3_S1_S3_i'
GPGPU-Sim uArch: Shader 12 bind to kernel 1 '_Z13spmv_jds_nvm2PfPKfPKiS3_S1_S3_i'
GPGPU-Sim uArch: Shader 13 bind to kernel 1 '_Z13spmv_jds_nvm2PfPKfPKiS3_S1_S3_i'
GPGPU-Sim uArch: Shader 14 bind to kernel 1 '_Z13spmv_jds_nvm2PfPKfPKiS3_S1_S3_i'
GPGPU-Sim uArch: Shader 15 bind to kernel 1 '_Z13spmv_jds_nvm2PfPKfPKiS3_S1_S3_i'
GPGPU-Sim uArch: Shader 16 bind to kernel 1 '_Z13spmv_jds_nvm2PfPKfPKiS3_S1_S3_i'
GPGPU-Sim uArch: Shader 17 bind to kernel 1 '_Z13spmv_jds_nvm2PfPKfPKiS3_S1_S3_i'
GPGPU-Sim uArch: Shader 18 bind to kernel 1 '_Z13spmv_jds_nvm2PfPKfPKiS3_S1_S3_i'
GPGPU-Sim uArch: Shader 19 bind to kernel 1 '_Z13spmv_jds_nvm2PfPKfPKiS3_S1_S3_i'
GPGPU-Sim uArch: Shader 20 bind to kernel 1 '_Z13spmv_jds_nvm2PfPKfPKiS3_S1_S3_i'
GPGPU-Sim uArch: Shader 21 bind to kernel 1 '_Z13spmv_jds_nvm2PfPKfPKiS3_S1_S3_i'
GPGPU-Sim uArch: Shader 22 bind to kernel 1 '_Z13spmv_jds_nvm2PfPKfPKiS3_S1_S3_i'
GPGPU-Sim uArch: Shader 23 bind to kernel 1 '_Z13spmv_jds_nvm2PfPKfPKiS3_S1_S3_i'
GPGPU-Sim uArch: Shader 24 bind to kernel 1 '_Z13spmv_jds_nvm2PfPKfPKiS3_S1_S3_i'
GPGPU-Sim uArch: Shader 25 bind to kernel 1 '_Z13spmv_jds_nvm2PfPKfPKiS3_S1_S3_i'
GPGPU-Sim uArch: Shader 26 bind to kernel 1 '_Z13spmv_jds_nvm2PfPKfPKiS3_S1_S3_i'
GPGPU-Sim uArch: Shader 27 bind to kernel 1 '_Z13spmv_jds_nvm2PfPKfPKiS3_S1_S3_i'
GPGPU-Sim uArch: Shader 28 bind to kernel 1 '_Z13spmv_jds_nvm2PfPKfPKiS3_S1_S3_i'
GPGPU-Sim uArch: Shader 29 bind to kernel 1 '_Z13spmv_jds_nvm2PfPKfPKiS3_S1_S3_i'
GPGPU-Sim uArch: Shader 30 bind to kernel 1 '_Z13spmv_jds_nvm2PfPKfPKiS3_S1_S3_i'
GPGPU-Sim uArch: Shader 31 bind to kernel 1 '_Z13spmv_jds_nvm2PfPKfPKiS3_S1_S3_i'
GPGPU-Sim uArch: Shader 32 bind to kernel 1 '_Z13spmv_jds_nvm2PfPKfPKiS3_S1_S3_i'
GPGPU-Sim uArch: Shader 33 bind to kernel 1 '_Z13spmv_jds_nvm2PfPKfPKiS3_S1_S3_i'
GPGPU-Sim uArch: Shader 34 bind to kernel 1 '_Z13spmv_jds_nvm2PfPKfPKiS3_S1_S3_i'
GPGPU-Sim uArch: Shader 35 bind to kernel 1 '_Z13spmv_jds_nvm2PfPKfPKiS3_S1_S3_i'
GPGPU-Sim uArch: Shader 36 bind to kernel 1 '_Z13spmv_jds_nvm2PfPKfPKiS3_S1_S3_i'
GPGPU-Sim uArch: Shader 37 bind to kernel 1 '_Z13spmv_jds_nvm2PfPKfPKiS3_S1_S3_i'
GPGPU-Sim uArch: Shader 38 bind to kernel 1 '_Z13spmv_jds_nvm2PfPKfPKiS3_S1_S3_i'
GPGPU-Sim uArch: Shader 39 bind to kernel 1 '_Z13spmv_jds_nvm2PfPKfPKiS3_S1_S3_i'
GPGPU-Sim uArch: Shader 40 bind to kernel 1 '_Z13spmv_jds_nvm2PfPKfPKiS3_S1_S3_i'
GPGPU-Sim uArch: Shader 41 bind to kernel 1 '_Z13spmv_jds_nvm2PfPKfPKiS3_S1_S3_i'
GPGPU-Sim uArch: Shader 42 bind to kernel 1 '_Z13spmv_jds_nvm2PfPKfPKiS3_S1_S3_i'
GPGPU-Sim uArch: Shader 43 bind to kernel 1 '_Z13spmv_jds_nvm2PfPKfPKiS3_S1_S3_i'
GPGPU-Sim uArch: Shader 44 bind to kernel 1 '_Z13spmv_jds_nvm2PfPKfPKiS3_S1_S3_i'
GPGPU-Sim uArch: Shader 45 bind to kernel 1 '_Z13spmv_jds_nvm2PfPKfPKiS3_S1_S3_i'
GPGPU-Sim uArch: Shader 46 bind to kernel 1 '_Z13spmv_jds_nvm2PfPKfPKiS3_S1_S3_i'
GPGPU-Sim uArch: Shader 47 bind to kernel 1 '_Z13spmv_jds_nvm2PfPKfPKiS3_S1_S3_i'
GPGPU-Sim uArch: Shader 48 bind to kernel 1 '_Z13spmv_jds_nvm2PfPKfPKiS3_S1_S3_i'
GPGPU-Sim uArch: Shader 49 bind to kernel 1 '_Z13spmv_jds_nvm2PfPKfPKiS3_S1_S3_i'
GPGPU-Sim uArch: Shader 50 bind to kernel 1 '_Z13spmv_jds_nvm2PfPKfPKiS3_S1_S3_i'
GPGPU-Sim uArch: Shader 51 bind to kernel 1 '_Z13spmv_jds_nvm2PfPKfPKiS3_S1_S3_i'
GPGPU-Sim uArch: Shader 52 bind to kernel 1 '_Z13spmv_jds_nvm2PfPKfPKiS3_S1_S3_i'
GPGPU-Sim uArch: Shader 53 bind to kernel 1 '_Z13spmv_jds_nvm2PfPKfPKiS3_S1_S3_i'
GPGPU-Sim uArch: Shader 54 bind to kernel 1 '_Z13spmv_jds_nvm2PfPKfPKiS3_S1_S3_i'
GPGPU-Sim uArch: Shader 55 bind to kernel 1 '_Z13spmv_jds_nvm2PfPKfPKiS3_S1_S3_i'
GPGPU-Sim uArch: Shader 56 bind to kernel 1 '_Z13spmv_jds_nvm2PfPKfPKiS3_S1_S3_i'
GPGPU-Sim uArch: Shader 57 bind to kernel 1 '_Z13spmv_jds_nvm2PfPKfPKiS3_S1_S3_i'
GPGPU-Sim uArch: Shader 58 bind to kernel 1 '_Z13spmv_jds_nvm2PfPKfPKiS3_S1_S3_i'
GPGPU-Sim uArch: Shader 59 bind to kernel 1 '_Z13spmv_jds_nvm2PfPKfPKiS3_S1_S3_i'
GPGPU-Sim uArch: Shader 60 bind to kernel 1 '_Z13spmv_jds_nvm2PfPKfPKiS3_S1_S3_i'
GPGPU-Sim uArch: Shader 61 bind to kernel 1 '_Z13spmv_jds_nvm2PfPKfPKiS3_S1_S3_i'
GPGPU-Sim uArch: Shader 62 bind to kernel 1 '_Z13spmv_jds_nvm2PfPKfPKiS3_S1_S3_i'
GPGPU-Sim uArch: Shader 63 bind to kernel 1 '_Z13spmv_jds_nvm2PfPKfPKiS3_S1_S3_i'
GPGPU-Sim uArch: Shader 64 bind to kernel 1 '_Z13spmv_jds_nvm2PfPKfPKiS3_S1_S3_i'
GPGPU-Sim uArch: Shader 65 bind to kernel 1 '_Z13spmv_jds_nvm2PfPKfPKiS3_S1_S3_i'
GPGPU-Sim uArch: Shader 66 bind to kernel 1 '_Z13spmv_jds_nvm2PfPKfPKiS3_S1_S3_i'
GPGPU-Sim uArch: Shader 67 bind to kernel 1 '_Z13spmv_jds_nvm2PfPKfPKiS3_S1_S3_i'
GPGPU-Sim uArch: Shader 68 bind to kernel 1 '_Z13spmv_jds_nvm2PfPKfPKiS3_S1_S3_i'
GPGPU-Sim uArch: Shader 69 bind to kernel 1 '_Z13spmv_jds_nvm2PfPKfPKiS3_S1_S3_i'
GPGPU-Sim uArch: Shader 70 bind to kernel 1 '_Z13spmv_jds_nvm2PfPKfPKiS3_S1_S3_i'
GPGPU-Sim uArch: Shader 71 bind to kernel 1 '_Z13spmv_jds_nvm2PfPKfPKiS3_S1_S3_i'
GPGPU-Sim uArch: Shader 72 bind to kernel 1 '_Z13spmv_jds_nvm2PfPKfPKiS3_S1_S3_i'
GPGPU-Sim uArch: Shader 73 bind to kernel 1 '_Z13spmv_jds_nvm2PfPKfPKiS3_S1_S3_i'
GPGPU-Sim uArch: Shader 74 bind to kernel 1 '_Z13spmv_jds_nvm2PfPKfPKiS3_S1_S3_i'
GPGPU-Sim uArch: Shader 75 bind to kernel 1 '_Z13spmv_jds_nvm2PfPKfPKiS3_S1_S3_i'
GPGPU-Sim uArch: Shader 76 bind to kernel 1 '_Z13spmv_jds_nvm2PfPKfPKiS3_S1_S3_i'
GPGPU-Sim uArch: Shader 77 bind to kernel 1 '_Z13spmv_jds_nvm2PfPKfPKiS3_S1_S3_i'
GPGPU-Sim uArch: Shader 78 bind to kernel 1 '_Z13spmv_jds_nvm2PfPKfPKiS3_S1_S3_i'
GPGPU-Sim uArch: Shader 79 bind to kernel 1 '_Z13spmv_jds_nvm2PfPKfPKiS3_S1_S3_i'
kernel_name = _Z13spmv_jds_nvm2PfPKfPKiS3_S1_S3_i 
kernel_launch_uid = 1 
gpu_sim_cycle = 51582
gpu_sim_insn = 39536338
gpu_ipc =     766.4755
gpu_tot_sim_cycle = 51582
gpu_tot_sim_insn = 39536338
gpu_tot_ipc =     766.4755
gpu_tot_issued_cta = 765
gpu_occupancy = 84.4032% 
gpu_tot_occupancy = 84.4032% 
max_total_param_size = 0
gpu_stall_dramfull = 1150731
gpu_stall_icnt2sh    = 0
partiton_level_parallism =      18.7175
partiton_level_parallism_total  =      18.7175
partiton_level_parallism_util =      21.0819
partiton_level_parallism_util_total  =      21.0819
L2_BW  =     667.1173 GB/Sec
L2_BW_total  =     667.1173 GB/Sec
gpu_total_sim_rate=77827
############## bottleneck_stats #############
cycles: core 51582, icnt 51582, l2 51582, dram 38732
gpu_ipc	766.475
gpu_tot_issued_cta = 765, average cycles = 67
n_dram_writes	 0, n_dram_reads	 0
n_GLOBAL_ACC_R	 656607 
n_LOCAL_ACC_R	 0 
n_CONST_ACC_R	 0 
n_TEXTURE_ACC_R	 0 
n_GLOBAL_ACC_W	 0 
n_LOCAL_ACC_W	 0 
n_L1_WRBK_ACC	 0 
n_L2_WRBK_ACC	 4911 
n_L1_WR_ALLOC_R	 0 
n_L2_WR_ALLOC_R	 0 

n_sm	 80, n_schedulers	 4
scheduler util	0.077	80
L1D data util	0.894	80	1.043	1
L1D tag util	0.337	80	0.447	1
L2 data util	0.844	64	0.855	24
L2 tag util	0.289	64	0.380	43
n_l2_access	 955202
icnt s2m util	0.000	0	0.000	43	flits per packet: -nan
icnt m2s util	0.000	0	0.000	43	flits per packet: -nan
sum=0
n_mem	 32
dram util	0.546	32	0.549	0

latency_l1_hit:	8624818, num_l1_reqs:	430957
L1 hit latency:	20
latency_l2_hit:	183654834, num_l2_reqs:	133305
L2 hit latency:	1377
latency_dram:	668854570, num_dram_reqs:	667636
DRAM latency:	1001

n_reg	65536, n_smem	98304, n_thread	2048, n_tb	32
reg file	0.938
smem size	0.000
thread slot	0.938
TB slot    	0.312
L1I tag util	0.159	80	0.168	16

n_mem_pipe	1, n_sp_pipe	4, n_sfu_pipe	4
mem pipe util	0.088	80	0.094	16
sp pipe util	0.000	0	0.000	16
sfu pipe util	0.000	0	0.000	16
ldst mem cycle	0.037	80	0.043	23

smem port	0.000	0

n_reg_bank	16
reg port	0.053	16	0.063	1
L1D tag util	0.337	80	0.447	1
L1D fill util	0.192	80	0.219	1
n_l1d_mshr	4096
L1D mshr util	0.049	80
n_l1d_missq	16
L1D missq util	0.048	80
L1D hit rate	0.310
L1D miss rate	0.615
L1D rsfail rate	0.075
L2 tag util	0.289	64	0.380	43
L2 fill util	0.199	64	0.201	24
n_l2_mshr	192
n_l2_missq	32
L2 mshr util	0.542	64	0.577	43
L2 missq util	0.006	64	0.006	54
L2 hit rate	0.140
L2 miss rate	0.706
L2 rsfail rate	0.154

dram activity	0.617	32	0.630	10

load trans eff	0.603
load trans sz	32.000
load_useful_bytes 24664320, load_transaction_bytes 40906112, icnt_m2s_bytes 0
n_gmem_load_insns 241197, n_gmem_load_accesses 1278316
n_smem_access_insn 0, n_smem_accesses 0

tmp_counter/12	0.542

run 0.007, fetch 0.001, sync 0.117, control 0.000, data 0.870, struct 0.005
############ end_bottleneck_stats #############

========= Core cache stats =========
L1I_cache:
	L1I_total_cache_accesses = 0
	L1I_total_cache_misses = 0
	L1I_total_cache_pending_hits = 0
	L1I_total_cache_reservation_fails = 0
L1D_cache:
	L1D_cache_core[0]: Access = 18899, Miss = 11989, Miss_rate = 0.634, Pending_hits = 0, Reservation_fails = 1249
	L1D_cache_core[1]: Access = 19409, Miss = 12064, Miss_rate = 0.622, Pending_hits = 0, Reservation_fails = 3654
	L1D_cache_core[2]: Access = 19340, Miss = 11768, Miss_rate = 0.608, Pending_hits = 0, Reservation_fails = 1531
	L1D_cache_core[3]: Access = 19221, Miss = 11836, Miss_rate = 0.616, Pending_hits = 0, Reservation_fails = 2188
	L1D_cache_core[4]: Access = 17575, Miss = 11303, Miss_rate = 0.643, Pending_hits = 0, Reservation_fails = 2149
	L1D_cache_core[5]: Access = 18037, Miss = 11581, Miss_rate = 0.642, Pending_hits = 0, Reservation_fails = 2163
	L1D_cache_core[6]: Access = 17946, Miss = 11534, Miss_rate = 0.643, Pending_hits = 0, Reservation_fails = 1153
	L1D_cache_core[7]: Access = 18034, Miss = 11678, Miss_rate = 0.648, Pending_hits = 0, Reservation_fails = 2404
	L1D_cache_core[8]: Access = 17692, Miss = 11510, Miss_rate = 0.651, Pending_hits = 0, Reservation_fails = 1834
	L1D_cache_core[9]: Access = 17875, Miss = 11516, Miss_rate = 0.644, Pending_hits = 0, Reservation_fails = 982
	L1D_cache_core[10]: Access = 17672, Miss = 11565, Miss_rate = 0.654, Pending_hits = 0, Reservation_fails = 477
	L1D_cache_core[11]: Access = 17863, Miss = 11681, Miss_rate = 0.654, Pending_hits = 0, Reservation_fails = 2037
	L1D_cache_core[12]: Access = 18245, Miss = 11780, Miss_rate = 0.646, Pending_hits = 0, Reservation_fails = 2368
	L1D_cache_core[13]: Access = 18384, Miss = 11781, Miss_rate = 0.641, Pending_hits = 0, Reservation_fails = 1835
	L1D_cache_core[14]: Access = 17987, Miss = 11525, Miss_rate = 0.641, Pending_hits = 0, Reservation_fails = 1262
	L1D_cache_core[15]: Access = 17101, Miss = 10942, Miss_rate = 0.640, Pending_hits = 0, Reservation_fails = 1283
	L1D_cache_core[16]: Access = 17239, Miss = 11284, Miss_rate = 0.655, Pending_hits = 0, Reservation_fails = 1595
	L1D_cache_core[17]: Access = 17328, Miss = 11412, Miss_rate = 0.659, Pending_hits = 0, Reservation_fails = 1948
	L1D_cache_core[18]: Access = 17170, Miss = 11191, Miss_rate = 0.652, Pending_hits = 0, Reservation_fails = 1343
	L1D_cache_core[19]: Access = 17199, Miss = 11193, Miss_rate = 0.651, Pending_hits = 0, Reservation_fails = 1906
	L1D_cache_core[20]: Access = 17281, Miss = 11196, Miss_rate = 0.648, Pending_hits = 0, Reservation_fails = 836
	L1D_cache_core[21]: Access = 17097, Miss = 11086, Miss_rate = 0.648, Pending_hits = 0, Reservation_fails = 1180
	L1D_cache_core[22]: Access = 16701, Miss = 11032, Miss_rate = 0.661, Pending_hits = 0, Reservation_fails = 592
	L1D_cache_core[23]: Access = 16183, Miss = 10839, Miss_rate = 0.670, Pending_hits = 0, Reservation_fails = 555
	L1D_cache_core[24]: Access = 16012, Miss = 10835, Miss_rate = 0.677, Pending_hits = 0, Reservation_fails = 855
	L1D_cache_core[25]: Access = 16239, Miss = 10841, Miss_rate = 0.668, Pending_hits = 0, Reservation_fails = 711
	L1D_cache_core[26]: Access = 16135, Miss = 10708, Miss_rate = 0.664, Pending_hits = 0, Reservation_fails = 1389
	L1D_cache_core[27]: Access = 16034, Miss = 10703, Miss_rate = 0.668, Pending_hits = 0, Reservation_fails = 897
	L1D_cache_core[28]: Access = 16015, Miss = 10641, Miss_rate = 0.664, Pending_hits = 0, Reservation_fails = 1207
	L1D_cache_core[29]: Access = 16137, Miss = 10823, Miss_rate = 0.671, Pending_hits = 0, Reservation_fails = 1103
	L1D_cache_core[30]: Access = 16175, Miss = 10781, Miss_rate = 0.667, Pending_hits = 0, Reservation_fails = 790
	L1D_cache_core[31]: Access = 16094, Miss = 10748, Miss_rate = 0.668, Pending_hits = 0, Reservation_fails = 529
	L1D_cache_core[32]: Access = 16121, Miss = 10752, Miss_rate = 0.667, Pending_hits = 0, Reservation_fails = 1968
	L1D_cache_core[33]: Access = 16034, Miss = 10768, Miss_rate = 0.672, Pending_hits = 0, Reservation_fails = 1374
	L1D_cache_core[34]: Access = 16228, Miss = 11544, Miss_rate = 0.711, Pending_hits = 0, Reservation_fails = 100
	L1D_cache_core[35]: Access = 16214, Miss = 11507, Miss_rate = 0.710, Pending_hits = 0, Reservation_fails = 1400
	L1D_cache_core[36]: Access = 15851, Miss = 11402, Miss_rate = 0.719, Pending_hits = 0, Reservation_fails = 577
	L1D_cache_core[37]: Access = 16052, Miss = 11352, Miss_rate = 0.707, Pending_hits = 0, Reservation_fails = 516
	L1D_cache_core[38]: Access = 15874, Miss = 11326, Miss_rate = 0.713, Pending_hits = 0, Reservation_fails = 1004
	L1D_cache_core[39]: Access = 16209, Miss = 11359, Miss_rate = 0.701, Pending_hits = 0, Reservation_fails = 564
	L1D_cache_core[40]: Access = 15852, Miss = 11327, Miss_rate = 0.715, Pending_hits = 0, Reservation_fails = 953
	L1D_cache_core[41]: Access = 16086, Miss = 11507, Miss_rate = 0.715, Pending_hits = 0, Reservation_fails = 1502
	L1D_cache_core[42]: Access = 16163, Miss = 11448, Miss_rate = 0.708, Pending_hits = 0, Reservation_fails = 582
	L1D_cache_core[43]: Access = 15947, Miss = 11482, Miss_rate = 0.720, Pending_hits = 0, Reservation_fails = 1271
	L1D_cache_core[44]: Access = 15031, Miss = 10484, Miss_rate = 0.697, Pending_hits = 0, Reservation_fails = 1307
	L1D_cache_core[45]: Access = 15009, Miss = 9916, Miss_rate = 0.661, Pending_hits = 0, Reservation_fails = 1174
	L1D_cache_core[46]: Access = 15040, Miss = 9866, Miss_rate = 0.656, Pending_hits = 0, Reservation_fails = 1036
	L1D_cache_core[47]: Access = 14806, Miss = 9923, Miss_rate = 0.670, Pending_hits = 0, Reservation_fails = 1091
	L1D_cache_core[48]: Access = 15074, Miss = 10178, Miss_rate = 0.675, Pending_hits = 0, Reservation_fails = 884
	L1D_cache_core[49]: Access = 14992, Miss = 9868, Miss_rate = 0.658, Pending_hits = 0, Reservation_fails = 1593
	L1D_cache_core[50]: Access = 15128, Miss = 9912, Miss_rate = 0.655, Pending_hits = 0, Reservation_fails = 1392
	L1D_cache_core[51]: Access = 14942, Miss = 9856, Miss_rate = 0.660, Pending_hits = 0, Reservation_fails = 1733
	L1D_cache_core[52]: Access = 14960, Miss = 10007, Miss_rate = 0.669, Pending_hits = 0, Reservation_fails = 1968
	L1D_cache_core[53]: Access = 14971, Miss = 9878, Miss_rate = 0.660, Pending_hits = 0, Reservation_fails = 1482
	L1D_cache_core[54]: Access = 14828, Miss = 10034, Miss_rate = 0.677, Pending_hits = 0, Reservation_fails = 1246
	L1D_cache_core[55]: Access = 14855, Miss = 9929, Miss_rate = 0.668, Pending_hits = 0, Reservation_fails = 1102
	L1D_cache_core[56]: Access = 14768, Miss = 9823, Miss_rate = 0.665, Pending_hits = 0, Reservation_fails = 1654
	L1D_cache_core[57]: Access = 14742, Miss = 9879, Miss_rate = 0.670, Pending_hits = 0, Reservation_fails = 2131
	L1D_cache_core[58]: Access = 14795, Miss = 9860, Miss_rate = 0.666, Pending_hits = 0, Reservation_fails = 528
	L1D_cache_core[59]: Access = 14878, Miss = 9864, Miss_rate = 0.663, Pending_hits = 0, Reservation_fails = 1489
	L1D_cache_core[60]: Access = 15176, Miss = 10074, Miss_rate = 0.664, Pending_hits = 0, Reservation_fails = 1694
	L1D_cache_core[61]: Access = 14862, Miss = 10093, Miss_rate = 0.679, Pending_hits = 0, Reservation_fails = 1277
	L1D_cache_core[62]: Access = 14950, Miss = 10018, Miss_rate = 0.670, Pending_hits = 0, Reservation_fails = 1207
	L1D_cache_core[63]: Access = 15060, Miss = 10045, Miss_rate = 0.667, Pending_hits = 0, Reservation_fails = 910
	L1D_cache_core[64]: Access = 14829, Miss = 9910, Miss_rate = 0.668, Pending_hits = 0, Reservation_fails = 156
	L1D_cache_core[65]: Access = 15023, Miss = 9918, Miss_rate = 0.660, Pending_hits = 0, Reservation_fails = 1258
	L1D_cache_core[66]: Access = 14985, Miss = 9937, Miss_rate = 0.663, Pending_hits = 0, Reservation_fails = 667
	L1D_cache_core[67]: Access = 14976, Miss = 10064, Miss_rate = 0.672, Pending_hits = 0, Reservation_fails = 1298
	L1D_cache_core[68]: Access = 15187, Miss = 10192, Miss_rate = 0.671, Pending_hits = 0, Reservation_fails = 683
	L1D_cache_core[69]: Access = 14980, Miss = 10069, Miss_rate = 0.672, Pending_hits = 0, Reservation_fails = 1880
	L1D_cache_core[70]: Access = 14860, Miss = 9879, Miss_rate = 0.665, Pending_hits = 0, Reservation_fails = 1864
	L1D_cache_core[71]: Access = 15051, Miss = 9986, Miss_rate = 0.663, Pending_hits = 0, Reservation_fails = 1016
	L1D_cache_core[72]: Access = 14902, Miss = 9943, Miss_rate = 0.667, Pending_hits = 0, Reservation_fails = 2070
	L1D_cache_core[73]: Access = 15094, Miss = 10004, Miss_rate = 0.663, Pending_hits = 0, Reservation_fails = 1815
	L1D_cache_core[74]: Access = 14988, Miss = 10032, Miss_rate = 0.669, Pending_hits = 0, Reservation_fails = 483
	L1D_cache_core[75]: Access = 15076, Miss = 10148, Miss_rate = 0.673, Pending_hits = 0, Reservation_fails = 2012
	L1D_cache_core[76]: Access = 14821, Miss = 9945, Miss_rate = 0.671, Pending_hits = 0, Reservation_fails = 1859
	L1D_cache_core[77]: Access = 14962, Miss = 10036, Miss_rate = 0.671, Pending_hits = 0, Reservation_fails = 1110
	L1D_cache_core[78]: Access = 15056, Miss = 9952, Miss_rate = 0.661, Pending_hits = 0, Reservation_fails = 984
	L1D_cache_core[79]: Access = 15130, Miss = 10118, Miss_rate = 0.669, Pending_hits = 0, Reservation_fails = 465
	L1D_total_cache_accesses = 1287737
	L1D_total_cache_misses = 856780
	L1D_total_cache_miss_rate = 0.6653
	L1D_total_cache_pending_hits = 0
	L1D_total_cache_reservation_fails = 104334
	L1D_cache_data_port_util = 0.116
	L1D_cache_fill_port_util = 0.212
L1C_cache:
	L1C_total_cache_accesses = 0
	L1C_total_cache_misses = 0
	L1C_total_cache_pending_hits = 0
	L1C_total_cache_reservation_fails = 0
L1T_cache:
	L1T_total_cache_accesses = 0
	L1T_total_cache_misses = 0
	L1T_total_cache_pending_hits = 0
	L1T_total_cache_reservation_fails = 0

Total_core_cache_stats:
	Total_core_cache_stats_breakdown[GLOBAL_ACC_R][HIT] = 430957
	Total_core_cache_stats_breakdown[GLOBAL_ACC_R][HIT_RESERVED] = 0
	Total_core_cache_stats_breakdown[GLOBAL_ACC_R][MISS] = 747491
	Total_core_cache_stats_breakdown[GLOBAL_ACC_R][RESERVATION_FAIL] = 103535
	Total_core_cache_stats_breakdown[GLOBAL_ACC_R][SECTOR_MISS] = 99233
	Total_core_cache_stats_breakdown[LOCAL_ACC_R][HIT] = 0
	Total_core_cache_stats_breakdown[LOCAL_ACC_R][HIT_RESERVED] = 0
	Total_core_cache_stats_breakdown[LOCAL_ACC_R][MISS] = 0
	Total_core_cache_stats_breakdown[LOCAL_ACC_R][RESERVATION_FAIL] = 0
	Total_core_cache_stats_breakdown[LOCAL_ACC_R][SECTOR_MISS] = 0
	Total_core_cache_stats_breakdown[CONST_ACC_R][HIT] = 0
	Total_core_cache_stats_breakdown[CONST_ACC_R][HIT_RESERVED] = 0
	Total_core_cache_stats_breakdown[CONST_ACC_R][MISS] = 0
	Total_core_cache_stats_breakdown[CONST_ACC_R][RESERVATION_FAIL] = 0
	Total_core_cache_stats_breakdown[CONST_ACC_R][SECTOR_MISS] = 0
	Total_core_cache_stats_breakdown[TEXTURE_ACC_R][HIT] = 0
	Total_core_cache_stats_breakdown[TEXTURE_ACC_R][HIT_RESERVED] = 0
	Total_core_cache_stats_breakdown[TEXTURE_ACC_R][MISS] = 0
	Total_core_cache_stats_breakdown[TEXTURE_ACC_R][RESERVATION_FAIL] = 0
	Total_core_cache_stats_breakdown[TEXTURE_ACC_R][SECTOR_MISS] = 0
	Total_core_cache_stats_breakdown[GLOBAL_ACC_W][HIT] = 0
	Total_core_cache_stats_breakdown[GLOBAL_ACC_W][HIT_RESERVED] = 0
	Total_core_cache_stats_breakdown[GLOBAL_ACC_W][MISS] = 10056
	Total_core_cache_stats_breakdown[GLOBAL_ACC_W][RESERVATION_FAIL] = 799
	Total_core_cache_stats_breakdown[GLOBAL_ACC_W][SECTOR_MISS] = 0
	Total_core_cache_stats_breakdown[LOCAL_ACC_W][HIT] = 0
	Total_core_cache_stats_breakdown[LOCAL_ACC_W][HIT_RESERVED] = 0
	Total_core_cache_stats_breakdown[LOCAL_ACC_W][MISS] = 0
	Total_core_cache_stats_breakdown[LOCAL_ACC_W][RESERVATION_FAIL] = 0
	Total_core_cache_stats_breakdown[LOCAL_ACC_W][SECTOR_MISS] = 0
	Total_core_cache_stats_breakdown[L1_WRBK_ACC][HIT] = 0
	Total_core_cache_stats_breakdown[L1_WRBK_ACC][HIT_RESERVED] = 0
	Total_core_cache_stats_breakdown[L1_WRBK_ACC][MISS] = 0
	Total_core_cache_stats_breakdown[L1_WRBK_ACC][RESERVATION_FAIL] = 0
	Total_core_cache_stats_breakdown[L1_WRBK_ACC][SECTOR_MISS] = 0
	Total_core_cache_stats_breakdown[L2_WRBK_ACC][HIT] = 0
	Total_core_cache_stats_breakdown[L2_WRBK_ACC][HIT_RESERVED] = 0
	Total_core_cache_stats_breakdown[L2_WRBK_ACC][MISS] = 0
	Total_core_cache_stats_breakdown[L2_WRBK_ACC][RESERVATION_FAIL] = 0
	Total_core_cache_stats_breakdown[L2_WRBK_ACC][SECTOR_MISS] = 0
	Total_core_cache_stats_breakdown[INST_ACC_R][HIT] = 0
	Total_core_cache_stats_breakdown[INST_ACC_R][HIT_RESERVED] = 0
	Total_core_cache_stats_breakdown[INST_ACC_R][MISS] = 0
	Total_core_cache_stats_breakdown[INST_ACC_R][RESERVATION_FAIL] = 0
	Total_core_cache_stats_breakdown[INST_ACC_R][SECTOR_MISS] = 0
	Total_core_cache_stats_breakdown[L1_WR_ALLOC_R][HIT] = 0
	Total_core_cache_stats_breakdown[L1_WR_ALLOC_R][HIT_RESERVED] = 0
	Total_core_cache_stats_breakdown[L1_WR_ALLOC_R][MISS] = 0
	Total_core_cache_stats_breakdown[L1_WR_ALLOC_R][RESERVATION_FAIL] = 0
	Total_core_cache_stats_breakdown[L1_WR_ALLOC_R][SECTOR_MISS] = 0
	Total_core_cache_stats_breakdown[L2_WR_ALLOC_R][HIT] = 0
	Total_core_cache_stats_breakdown[L2_WR_ALLOC_R][HIT_RESERVED] = 0
	Total_core_cache_stats_breakdown[L2_WR_ALLOC_R][MISS] = 0
	Total_core_cache_stats_breakdown[L2_WR_ALLOC_R][RESERVATION_FAIL] = 0
	Total_core_cache_stats_breakdown[L2_WR_ALLOC_R][SECTOR_MISS] = 0
	Total_core_cache_stats_breakdown[GLOBAL_ACC_R][TOTAL_ACCESS] = 1277681
	Total_core_cache_stats_breakdown[GLOBAL_ACC_W][TOTAL_ACCESS] = 10056

Total_core_cache_fail_stats:
	Total_core_cache_fail_stats_breakdown[GLOBAL_ACC_R][MISS_QUEUE_FULL] = 103535
	Total_core_cache_fail_stats_breakdown[GLOBAL_ACC_W][MISS_QUEUE_FULL] = 799
Shader 0 warp_id issue ditsribution:
warp_id:
0, 1, 2, 3, 4, 5, 6, 7, 8, 9, 10, 11, 12, 13, 14, 15, 16, 17, 18, 19, 20, 21, 22, 23, 24, 25, 26, 27, 28, 29, 30, 31, 32, 33, 34, 35, 36, 37, 38, 39, 40, 41, 42, 43, 44, 45, 46, 47, 48, 49, 50, 51, 52, 53, 54, 55, 56, 57, 58, 59, 
distro:
284, 284, 284, 284, 284, 284, 284, 284, 284, 284, 277, 284, 277, 277, 273, 284, 273, 277, 277, 284, 277, 284, 277, 273, 273, 273, 277, 277, 277, 273, 273, 273, 273, 273, 273, 277, 274, 272, 272, 272, 272, 271, 274, 272, 271, 272, 272, 271, 274, 272, 272, 272, 272, 272, 274, 271, 271, 272, 271, 271, 
gpgpu_n_tot_thrd_icount = 40535168
gpgpu_n_tot_w_icount = 1266724
gpgpu_n_stall_shd_mem = 1867194
gpgpu_n_mem_read_local = 0
gpgpu_n_mem_write_local = 0
gpgpu_n_mem_read_global = 804444
gpgpu_n_mem_write_global = 162888
gpgpu_n_mem_texture = 0
gpgpu_n_mem_const = 0
gpgpu_n_load_insn  = 7717116
gpgpu_n_store_insn = 131288
gpgpu_n_shmem_insn = 0
gpgpu_n_sstarr_insn = 0
gpgpu_n_tex_insn = 0
gpgpu_n_const_mem_insn = 2781930
gpgpu_n_param_mem_insn = 881280
gpgpu_n_shmem_bkconflict = 0
gpgpu_n_cache_bkconflict = 0
gpgpu_n_intrawarp_mshr_merge = 0
gpgpu_n_cmem_portconflict = 0
gpgpu_stall_shd_mem[c_mem][resource_stall] = 0
gpgpu_stall_shd_mem[s_mem][bk_conf] = 0
gpgpu_stall_shd_mem[gl_mem][resource_stall] = 1109274
gpgpu_stall_shd_mem[gl_mem][coal_stall] = 150444
gpgpu_stall_shd_mem[gl_mem][data_port_stall] = 0
gpu_reg_bank_conflict_stalls = 0
Warp Occupancy Distribution:
Stall:1850512	W0_Idle:400	W0_Scoreboard:11785198	W1:1200	W2:0	W3:0	W4:0	W5:0	W6:0	W7:0	W8:0	W9:0	W10:0	W11:0	W12:0	W13:0	W14:0	W15:0	W16:0	W17:0	W18:0	W19:0	W20:0	W21:0	W22:0	W23:0	W24:0	W25:0	W26:0	W27:0	W28:0	W29:0	W30:0	W31:0	W32:1268610
single_issue_nums: WS0:323160	WS1:322575	WS2:312469	WS3:311606	
dual_issue_nums: WS0:0	WS1:0	WS2:0	WS3:0	
traffic_breakdown_coretomem[GLOBAL_ACC_R] = 6435552 {8:804444,}
traffic_breakdown_coretomem[GLOBAL_ACC_W] = 1624896 {8:152832,40:10056,}
traffic_breakdown_memtocore[GLOBAL_ACC_R] = 31637120 {40:790928,}
traffic_breakdown_memtocore[GLOBAL_ACC_W] = 1271656 {8:158957,}
maxmflatency = 10884 
max_icnt2mem_latency = 9769 
maxmrqlatency = 857 
max_icnt2sh_latency = 141 
averagemflatency = 1817 
avg_icnt2mem_latency = 1034 
avg_mrq_latency = 58 
avg_icnt2sh_latency = 3 
mrq_lat_table:60242 	51619 	52348 	73577 	75594 	121257 	139296 	72808 	14490 	263 	0 	0 	0 	0 	0 	0 	0 	0 	0 	0 	0 	0 	0 	0 	0 	0 	0 	0 	0 	0 	0 	0 	
dq_lat_table:0 	0 	0 	0 	0 	0 	0 	0 	0 	0 	0 	0 	0 	0 	0 	0 	0 	0 	0 	0 	0 	0 	0 	0 	0 	0 	0 	0 	0 	0 	0 	0 	
mf_lat_table:0 	0 	0 	0 	0 	0 	0 	46102 	51981 	541134 	114294 	42900 	123465 	29984 	0 	0 	0 	0 	0 	0 	0 	0 	0 	0 	0 	0 	0 	0 	0 	0 	0 	0 	
icnt2mem_lat_table:0 	142 	136 	362 	480092 	96070 	57473 	57362 	41051 	37956 	18032 	63930 	111383 	1499 	0 	0 	0 	0 	0 	0 	0 	0 	0 	0 	
icnt2sh_lat_table:0 	780238 	104250 	34403 	19587 	9167 	2175 	40 	0 	0 	0 	0 	0 	0 	0 	0 	0 	0 	0 	0 	0 	0 	0 	0 	
mf_lat_pw_table:0 	0 	0 	0 	0 	0 	0 	0 	1 	50 	10 	6 	22 	3 	0 	0 	0 	0 	0 	0 	0 	0 	0 	0 	0 	0 	0 	0 	0 	0 	0 	0 	
maximum concurrent accesses to same row:
dram[0]:        64        64        64        64        64        64        64        64        64        64        64        64        64        64        64        64 
dram[1]:        64        64        64        64        64        64        64        64        64        64        64        64        64        64        64        64 
dram[2]:        64        64        64        64        64        64        64        64        64        64        64        64        64        64        64        64 
dram[3]:        64        64        64        64        64        64        64        64        64        64        64        64        64        64        64        64 
dram[4]:        64        64        64        64        64        64        64        64        64        64        64        64        64        64        64        64 
dram[5]:        64        64        64        64        64        64        64        64        64        64        64        64        64        64        64        64 
dram[6]:        64        64        64        64        64        64        64        64        64        64        64        64        64        64        64        64 
dram[7]:        64        64        64        64        64        64        64        64        64        64        64        64        64        64        64        64 
dram[8]:        64        64        64        64        64        64        64        64        64        64        64        64        64        64        64        64 
dram[9]:        64        64        64        64        64        64        64        64        64        64        64        64        64        64        64        64 
dram[10]:        64        64        64        64        64        64        64        64        64        64        64        64        64        64        64        64 
dram[11]:        64        64        64        64        64        64        64        64        64        64        64        64        64        64        64        64 
dram[12]:        64        64        64        64        64        64        64        64        64        64        64        64        64        64        64        64 
dram[13]:        64        64        64        64        64        64        64        64        64        64        64        64        64        64        64        64 
dram[14]:        64        64        64        64        64        64        64        64        64        64        64        64        64        64        64        64 
dram[15]:        64        64        64        64        64        64        64        64        64        64        64        64        64        64        64        64 
dram[16]:        64        64        64        64        64        64        64        64        64        64        64        64        64        64        64        64 
dram[17]:        64        64        64        64        64        64        64        64        64        64        64        64        64        64        64        64 
dram[18]:        64        64        64        64        64        64        64        64        64        64        64        64        64        64        64        64 
dram[19]:        64        64        64        64        64        64        64        64        64        64        64        64        64        64        64        64 
dram[20]:        64        64        64        64        64        64        64        64        64        64        64        64        64        64        64        64 
dram[21]:        64        64        64        64        64        64        64        64        64        64        64        64        64        64        64        64 
dram[22]:        64        64        64        64        64        64        64        64        64        64        64        64        64        64        64        64 
dram[23]:        64        64        64        64        64        64        64        64        64        64        64        64        64        64        64        64 
dram[24]:        64        64        64        64        64        64        64        64        64        64        64        64        64        64        64        64 
dram[25]:        64        64        64        64        64        64        64        64        64        64        64        64        64        64        64        64 
dram[26]:        64        64        64        64        64        64        64        64        64        64        64        64        64        64        64        64 
dram[27]:        64        64        64        64        64        64        64        64        64        64        64        64        64        64        64        64 
dram[28]:        64        64        64        64        64        64        64        64        64        64        64        64        64        64        64        64 
dram[29]:        64        64        64        64        64        64        64        64        64        64        64        64        64        64        64        64 
dram[30]:        64        64        64        64        64        64        64        64        64        64        64        64        64        64        64        64 
dram[31]:        64        64        64        64        64        64        64        64        64        64        64        64        64        64        64        64 
maximum service time to same row:
dram[0]:      5807      5803      5959      5981      6402      6340      6635      6722     12358     10045     11705     12697     17574     17327     16642     18100 
dram[1]:      5803      5807      5997      5979      6318      6635      6689      6690     11502     12801     13597     11376     17537      7625     18011      5860 
dram[2]:      5807      5803      5971      5972      8815      7315      6685      6711      9145     12223     12353     11589     16810     18380     17879      5848 
dram[3]:      5807      5803      5980      5981      6832      8459      6726      8179     12225     12782     12920      8508     17220     16388      5866     17044 
dram[4]:      5803      5807      6020      5957      6752     11927      6719      6613     10001     12894     11577     10890     18017     18492     18097      5860 
dram[5]:      5807      5803      5951      5973      6430      7347      6710      6754      9333     14177     15294     12819     17773     17830      5858      5848 
dram[6]:      5807      5803      5980      5981      6382     11742      6683      6750     12093      9629     11157     11113     17602     17912     18012      5862 
dram[7]:      5803      5807      5977      5967      6382      7840      6666      6734     10429      6992     12156     11184     17289     18686     17228     17507 
dram[8]:      5803      5804      5969      5992      6345     11934      7623      6694     15056      9884     10743     11136     18133     18380     18484     17684 
dram[9]:      5807      5803      6329      5989      6404     13596      6619      6737     12163      8554     12788     10838      7624     17546      5876     16514 
dram[10]:      5803      5807      5969      5971      6302      9555      6603      6637      9812     11731     15147     11176     17079     17456      5855      5876 
dram[11]:      5803      5804      5969      5971      9383     11081      6629      6613      6992     14142      7762      7472     17273     17249     18107     17497 
dram[12]:      5807      5803      5988      5989      6398     11156      9447      6679     14932      6948      9961      7418     17321     17678     18497     16683 
dram[13]:      5803      5807      5969      5971      6306     13955      8227      6678     12255     10879     11765     12066     18391     17510      5855     17157 
dram[14]:      5803      5804      6005      5989     12978     10880      6613      6670      9365     10891     10906     14198     17340     16661     16961      5852 
dram[15]:     17367      5803      5985      6829     10990      7173      6650      6795     10994     14356     14463      9842     16774     16690     18083     17743 
dram[16]:      5803      5807      6016      5975      6333      7712      6731      6699     12304     11280      8652     10078     18276     15421      5848     17400 
dram[17]:      5803      5812      5975     11413      6978      8883      6741      6753     12174     11546     14285     13451     17445     17505     16242      5855 
dram[18]:      5807      5803      5975      5976      6840      7526      6695      6806     14457      7870     11773     11914     18354     18644      5860      5851 
dram[19]:      5803      5807      6011      5973      9827      8969      6719      6758      7071     10369      7793     11870     17955     16999      5848      5860 
dram[20]:      5803      5812      5973      6017      9362      6418      6718      6785     10359      9481     13989     12726     17602     16890      5859      5855 
dram[21]:      5807      5803      5973      5975     12350      6349      6682      6745     11432      9578     14184     12431     17789     17070      5860     16737 
dram[22]:      5803     13143      5983      5973      6792      6420      6758      6718      9673     13001     10975     13474     16379     16674     18290      5860 
dram[23]:      5803      5807      6004      5971     13604      8473      6753      6711     12736     13111     10338     10200     16981     16488     17233     18248 
dram[24]:      5807      5803      5963      5964      6357     11341      6709      6689      9251     12342     10530     12611     17615     17506     17676     17923 
dram[25]:      5803      5807      5991      5961     11712      7698      6781      6690     12733     11996     11032     13065     18799     18443     18178     18044 
dram[26]:      5803      5807      6004     10841      7319     12392      6726      6666     12938     13154     13154      7410      7589     16678      5878     17978 
dram[27]:      5807      5803      5959      5939      7691      7937      9411      6706     11204      7399      7426     12918     18126     17731      5860      5870 
dram[28]:      5803      5807      5995      5960     10877      9446      6765      6637     11413      7814     11810      7444      7637     17196      5848     17588 
dram[29]:      5803      5807      5996      5948      7386      9191      6713      6675     15016     11869     11540     11284     18390     17787     18398      5860 
dram[30]:      5807      5803      5977      5957     13176     12850      6685      6695      7030     11730     14249     11645     18369     18274      5863     18016 
dram[31]:      5803      5807      5981      7474      8554      6412      6722      6655     11793     12512     12013     13419     17298     17089      5848     18115 
average row accesses per activate:
dram[0]: 48.296295 42.322582 39.823528 35.736843 31.511627 37.500000 29.555555 30.000000 39.030304 40.375000 31.097561 32.717949 29.714285 35.428570 36.411766 43.857143 
dram[1]: 56.695652 45.241379 45.000000 35.684212 28.125000 26.920000 25.901960 28.170214 39.151516 38.787880 23.773584 37.411766 31.350000 41.931034 36.969696 42.206898 
dram[2]: 52.160000 45.241379 40.969696 32.214287 27.040001 40.484848 30.744186 26.714285 34.105263 37.028572 29.395350 34.486488 30.799999 31.282051 42.068966 40.799999 
dram[3]: 38.470589 39.757576 45.133335 28.808510 32.634148 34.256409 26.039215 27.872341 35.555557 35.777779 28.727272 30.476191 32.421051 34.333332 32.864864 38.750000 
dram[4]: 45.241379 41.000000 39.823528 35.657894 31.116280 33.375000 26.780001 25.307692 30.046511 42.566666 32.358974 29.302326 31.692308 33.888889 35.882355 42.206898 
dram[5]: 39.757576 41.000000 35.526318 33.024391 26.780001 34.947369 30.674419 23.625000 35.027027 49.115383 25.200001 32.410255 28.651163 31.282051 33.777779 45.333332 
dram[6]: 32.799999 37.485714 33.048782 31.604650 23.051723 33.700001 27.250000 31.255814 28.444445 35.027027 40.903225 32.717949 32.236843 31.000000 35.882355 39.483871 
dram[7]: 42.322582 35.459461 34.769230 27.755102 33.724998 35.421051 31.880953 28.933332 35.555557 39.750000 39.406250 38.303032 35.000000 38.375000 49.279999 32.315788 
dram[8]: 48.592594 35.378380 32.926830 29.500000 29.955555 33.474998 27.750000 31.023256 29.953489 29.953489 29.581396 39.250000 44.285713 34.111111 37.212120 38.375000 
dram[9]: 39.757576 35.459461 34.666668 29.478260 24.407408 36.459461 25.760000 29.622223 28.266666 35.666668 32.947369 33.684212 34.742859 32.000000 38.250000 38.625000 
dram[10]: 41.000000 39.757576 34.025002 28.312500 36.324326 27.520834 24.943396 28.021276 32.615383 37.411766 34.135136 30.682926 26.782608 29.333334 38.250000 48.959999 
dram[11]: 39.757576 36.444443 35.578949 28.851065 32.975609 36.405407 24.830189 34.205128 29.181818 30.380953 38.424244 29.809525 42.620689 31.794872 34.111111 38.500000 
dram[12]: 32.799999 42.322582 36.648647 27.139999 32.142857 36.243244 27.408163 33.820515 32.500000 41.096775 34.000000 34.000000 33.837837 32.526318 40.000000 38.375000 
dram[13]: 37.485714 41.000000 29.500000 33.924999 31.395350 43.193550 26.755102 39.909092 31.219513 40.000000 32.333332 34.666668 27.659090 33.297298 42.206898 41.066666 
dram[14]: 34.526318 39.757576 32.190475 31.488373 29.282608 33.923077 30.477272 25.980000 31.024391 36.114285 36.457142 37.818180 36.000000 34.000000 32.315788 39.483871 
dram[15]: 42.419353 36.444443 33.048782 33.849998 32.142857 32.047619 30.790697 38.794117 32.410255 33.894737 31.500000 33.263157 35.428570 30.341463 42.482758 35.028572 
dram[16]: 39.757576 42.322582 36.621620 36.621620 32.756096 38.514286 30.318182 32.071430 33.684212 34.486488 26.083334 34.162163 32.972973 32.307693 43.714287 40.516129 
dram[17]: 39.757576 35.459461 39.735294 28.229166 29.955555 33.974358 24.145454 25.559999 31.414635 38.545456 25.120001 32.102566 39.000000 34.971428 42.620689 39.483871 
dram[18]: 33.641026 42.322582 34.769230 27.714285 32.190475 38.085712 24.888889 26.591837 39.030304 38.787880 27.565218 40.419353 29.756098 44.000000 39.483871 34.971428 
dram[19]: 36.444443 41.000000 39.764706 28.914894 28.041666 37.083332 26.979591 27.291666 30.476191 34.702702 35.111111 33.263157 28.090910 35.428570 42.206898 36.000000 
dram[20]: 32.000000 42.322582 34.717949 28.333334 26.820000 31.833334 25.384615 30.604650 32.099998 35.361111 27.369566 33.157894 34.333332 39.870968 42.206898 34.000000 
dram[21]: 33.641026 48.592594 34.461540 35.051281 31.046511 31.952381 27.291666 28.531916 29.395350 41.677418 24.740000 33.184212 34.000000 34.111111 42.206898 29.951220 
dram[22]: 36.444443 33.743591 33.750000 28.500000 31.116280 37.000000 26.979591 29.500000 29.860466 38.666668 29.488373 34.162163 29.023256 36.147060 43.857143 40.799999 
dram[23]: 37.485714 38.588234 33.825001 27.180000 32.707317 38.485714 31.547619 26.632652 26.666666 38.666668 28.727272 35.333332 27.909090 32.526318 47.384617 37.333332 
dram[24]: 40.812500 33.641026 39.852940 28.437500 31.511627 32.756096 33.450001 31.093023 31.219513 30.476191 37.294117 34.486488 30.600000 35.085712 51.166668 38.500000 
dram[25]: 42.322582 35.459461 36.513512 32.476189 29.043478 28.489361 34.526318 29.266666 28.444445 36.342857 28.177778 39.187500 27.818182 34.000000 43.857143 35.085712 
dram[26]: 35.459461 35.459461 32.878048 32.500000 26.580000 30.795454 24.203703 29.795454 29.767443 32.000000 27.063829 36.228573 24.816326 28.813953 37.090908 39.612904 
dram[27]: 38.588234 39.757576 33.097561 32.404762 32.000000 40.878788 27.142857 27.479166 33.282051 39.531250 35.555557 45.000000 27.466667 30.243902 53.217392 33.081081 
dram[28]: 35.459461 39.757576 31.418604 30.333334 43.129032 36.486488 33.794872 37.305557 30.761906 30.190475 33.368420 37.294117 32.864864 29.372093 45.333332 41.200001 
dram[29]: 50.461540 32.000000 36.648647 32.404762 31.452381 34.512821 23.781818 29.043478 32.200001 36.228573 31.146341 46.518520 29.756098 34.305557 47.115383 39.483871 
dram[30]: 45.241379 39.757576 37.555557 33.268291 32.243904 34.333332 33.205128 27.645834 32.000000 39.750000 30.285715 36.823528 29.780487 29.951220 48.959999 40.933334 
dram[31]: 45.241379 38.588234 43.741936 34.692307 33.073170 29.000000 25.803921 27.872341 35.777779 39.750000 35.222221 33.729729 35.200001 25.469387 48.840000 39.612904 
[...]
queue_avg = 21.535088 


dram_util_bins: 0 0 0 0 0 0 0 0 0 0
dram_eff_bins: 0 0 0 0 0 0 0 0 0 0
mrqq: max=64 avg=21.5351
Memory Partition 28: 
Cache L2_bank_056:

Cache L2_bank_057:

In Dram Latency Queue (total = 255): 
DRAM[28]: 16 bks, busW=16 BL=2 CL=12, tRRD=3 tCCD=1, tRCD=12 tRAS=28 tRP=12 tRC=40
n_cmd=38732 n_nop=17372 n_act=594 n_pre=578 n_ref_event=0 n_req=20723 n_rd=20575 n_rd_L2_A=0 n_write=0 n_wr_bk=592 bw_util=0.5465
n_activity=26288 dram_eff=0.8052
bk0: 1312a 34795i bk1: 1312a 34476i bk2: 1344a 34459i bk3: 1344a 33627i bk4: 1304a 34250i bk5: 1308a 33366i bk6: 1296a 34590i bk7: 1320a 34267i bk8: 1292a 34716i bk9: 1268a 34117i bk10: 1268a 34902i bk11: 1268a 34271i bk12: 1216a 34844i bk13: 1263a 33932i bk14: 1224a 35204i bk15: 1236a 34667i 

------------------------------------------------------------------------

Row_Buffer_Locality = 0.971336
Row_Buffer_Locality_read = 0.972248
Row_Buffer_Locality_write = 0.844595
Bank_Level_Parallism = 3.794322
Bank_Level_Parallism_Col = 3.491491
Bank_Level_Parallism_Ready = 2.465394
write_to_read_ratio_blp_rw_average = 0.051476
GrpLevelPara = 2.755467 

BW Util details:
bwutil = 0.546499 
total_CMD = 38732 
util_bw = 21167 
Wasted_Col = 1976 
Wasted_Row = 564 
Idle = 15025 

BW Util Bottlenecks: 
RCDc_limit = 955 
RCDWRc_limit = 155 
WTRc_limit = 276 
RTWc_limit = 607 
CCDLc_limit = 1225 
rwq = 0 
CCDLc_limit_alone = 1155 
WTRc_limit_alone = 236 
RTWc_limit_alone = 577 

Commands details: 
total_CMD = 38732 
n_nop = 17372 
Read = 20575 
Write = 0 
L2_Alloc = 0 
L2_WB = 592 
n_act = 594 
n_pre = 578 
n_ref = 0 
n_req = 20723 
total_req = 21167 

Dual Bus Interface Util: 
issued_total_row = 1172 
issued_total_col = 21167 
Row_Bus_Util =  0.030259 
CoL_Bus_Util = 0.546499 
Either_Row_CoL_Bus_Util = 0.551482 
Issued_on_Two_Bus_Simul_Util = 0.025276 
issued_two_Eff = 0.045833 
queue_avg = 21.777033 


dram_util_bins: 0 0 0 0 0 0 0 0 0 0
dram_eff_bins: 0 0 0 0 0 0 0 0 0 0
mrqq: max=64 avg=21.777
Memory Partition 29: 
Cache L2_bank_058:

Cache L2_bank_059:

In Dram Latency Queue (total = 247): 
DRAM[29]: 16 bks, busW=16 BL=2 CL=12, tRRD=3 tCCD=1, tRCD=12 tRAS=28 tRP=12 tRC=40
n_cmd=38732 n_nop=17460 n_act=605 n_pre=589 n_ref_event=0 n_req=20651 n_rd=20503 n_rd_L2_A=0 n_write=0 n_wr_bk=560 bw_util=0.5438
n_activity=26797 dram_eff=0.786
bk0: 1312a 35097i bk1: 1312a 33785i bk2: 1344a 34704i bk3: 1344a 34007i bk4: 1284a 34200i bk5: 1312a 33874i bk6: 1284a 34400i bk7: 1320a 34298i bk8: 1288a 34877i bk9: 1268a 34511i bk10: 1277a 34823i bk11: 1256a 34490i bk12: 1220a 34424i bk13: 1234a 34101i bk14: 1224a 35189i bk15: 1224a 34667i 

------------------------------------------------------------------------

Row_Buffer_Locality = 0.970695
Row_Buffer_Locality_read = 0.972007
Row_Buffer_Locality_write = 0.778571
Bank_Level_Parallism = 3.735944
Bank_Level_Parallism_Col = 3.443423
Bank_Level_Parallism_Ready = 2.446565
write_to_read_ratio_blp_rw_average = 0.054222
GrpLevelPara = 2.749068 

BW Util details:
bwutil = 0.543814 
total_CMD = 38732 
util_bw = 21063 
Wasted_Col = 2066 
Wasted_Row = 669 
Idle = 14934 

BW Util Bottlenecks: 
RCDc_limit = 921 
RCDWRc_limit = 211 
WTRc_limit = 352 
RTWc_limit = 535 
CCDLc_limit = 1103 
rwq = 0 
CCDLc_limit_alone = 1060 
WTRc_limit_alone = 319 
RTWc_limit_alone = 525 

Commands details: 
total_CMD = 38732 
n_nop = 17460 
Read = 20503 
Write = 0 
L2_Alloc = 0 
L2_WB = 560 
n_act = 605 
n_pre = 589 
n_ref = 0 
n_req = 20651 
total_req = 21063 

Dual Bus Interface Util: 
issued_total_row = 1194 
issued_total_col = 21063 
Row_Bus_Util =  0.030827 
CoL_Bus_Util = 0.543814 
Either_Row_CoL_Bus_Util = 0.549210 
Issued_on_Two_Bus_Simul_Util = 0.025431 
issued_two_Eff = 0.046305 
queue_avg = 22.947924 


dram_util_bins: 0 0 0 0 0 0 0 0 0 0
dram_eff_bins: 0 0 0 0 0 0 0 0 0 0
mrqq: max=64 avg=22.9479
Memory Partition 30: 
Cache L2_bank_060:

Cache L2_bank_061:

In Dram Latency Queue (total = 249): 
DRAM[30]: 16 bks, busW=16 BL=2 CL=12, tRRD=3 tCCD=1, tRCD=12 tRAS=28 tRP=12 tRC=40
n_cmd=38732 n_nop=17459 n_act=591 n_pre=575 n_ref_event=0 n_req=20601 n_rd=20448 n_rd_L2_A=0 n_write=0 n_wr_bk=608 bw_util=0.5436
n_activity=26887 dram_eff=0.7831
bk0: 1312a 35108i bk1: 1312a 34621i bk2: 1340a 34568i bk3: 1344a 33880i bk4: 1284a 33998i bk5: 1299a 33778i bk6: 1272a 34560i bk7: 1308a 34129i bk8: 1280a 35077i bk9: 1272a 34997i bk10: 1272a 34669i bk11: 1252a 34559i bk12: 1221a 34834i bk13: 1228a 34280i bk14: 1224a 35312i bk15: 1228a 34856i 

------------------------------------------------------------------------

Row_Buffer_Locality = 0.971311
Row_Buffer_Locality_read = 0.972565
Row_Buffer_Locality_write = 0.802632
Bank_Level_Parallism = 3.618933
Bank_Level_Parallism_Col = 3.362472
Bank_Level_Parallism_Ready = 2.399601
write_to_read_ratio_blp_rw_average = 0.062118
GrpLevelPara = 2.707650 

BW Util details:
bwutil = 0.543633 
total_CMD = 38732 
util_bw = 21056 
Wasted_Col = 2197 
Wasted_Row = 811 
Idle = 14668 

BW Util Bottlenecks: 
RCDc_limit = 1018 
RCDWRc_limit = 214 
WTRc_limit = 184 
RTWc_limit = 592 
CCDLc_limit = 1206 
rwq = 0 
CCDLc_limit_alone = 1154 
WTRc_limit_alone = 169 
RTWc_limit_alone = 555 

Commands details: 
total_CMD = 38732 
n_nop = 17459 
Read = 20448 
Write = 0 
L2_Alloc = 0 
L2_WB = 608 
n_act = 591 
n_pre = 575 
n_ref = 0 
n_req = 20601 
total_req = 21056 

Dual Bus Interface Util: 
issued_total_row = 1166 
issued_total_col = 21056 
Row_Bus_Util =  0.030104 
CoL_Bus_Util = 0.543633 
Either_Row_CoL_Bus_Util = 0.549236 
Issued_on_Two_Bus_Simul_Util = 0.024502 
issued_two_Eff = 0.044611 
queue_avg = 21.653904 


dram_util_bins: 0 0 0 0 0 0 0 0 0 0
dram_eff_bins: 0 0 0 0 0 0 0 0 0 0
mrqq: max=64 avg=21.6539
Memory Partition 31: 
Cache L2_bank_062:

Cache L2_bank_063:

In Dram Latency Queue (total = 257): 
DRAM[31]: 16 bks, busW=16 BL=2 CL=12, tRRD=3 tCCD=1, tRCD=12 tRAS=28 tRP=12 tRC=40
n_cmd=38732 n_nop=17380 n_act=599 n_pre=583 n_ref_event=0 n_req=20654 n_rd=20493 n_rd_L2_A=0 n_write=0 n_wr_bk=644 bw_util=0.5457
n_activity=26929 dram_eff=0.7849
bk0: 1312a 34857i bk1: 1312a 34596i bk2: 1344a 34577i bk3: 1340a 33898i bk4: 1312a 33739i bk5: 1296a 33868i bk6: 1288a 33778i bk7: 1284a 34231i bk8: 1288a 34978i bk9: 1272a 34821i bk10: 1268a 34934i bk11: 1248a 34165i bk12: 1232a 34852i bk13: 1248a 33716i bk14: 1221a 35064i bk15: 1228a 34775i 

------------------------------------------------------------------------

Row_Buffer_Locality = 0.970998
Row_Buffer_Locality_read = 0.972283
Row_Buffer_Locality_write = 0.807453
Bank_Level_Parallism = 3.721966
Bank_Level_Parallism_Col = 3.453641
Bank_Level_Parallism_Ready = 2.433127
write_to_read_ratio_blp_rw_average = 0.064710
GrpLevelPara = 2.747331 

BW Util details:
bwutil = 0.545724 
total_CMD = 38732 
util_bw = 21137 
Wasted_Col = 2155 
Wasted_Row = 759 
Idle = 14681 

BW Util Bottlenecks: 
RCDc_limit = 1008 
RCDWRc_limit = 209 
WTRc_limit = 341 
RTWc_limit = 728 
CCDLc_limit = 1177 
rwq = 0 
CCDLc_limit_alone = 1122 
WTRc_limit_alone = 329 
RTWc_limit_alone = 685 

Commands details: 
total_CMD = 38732 
n_nop = 17380 
Read = 20493 
Write = 0 
L2_Alloc = 0 
L2_WB = 644 
n_act = 599 
n_pre = 583 
n_ref = 0 
n_req = 20654 
total_req = 21137 

Dual Bus Interface Util: 
issued_total_row = 1182 
issued_total_col = 21137 
Row_Bus_Util =  0.030517 
CoL_Bus_Util = 0.545724 
Either_Row_CoL_Bus_Util = 0.551275 
Issued_on_Two_Bus_Simul_Util = 0.024966 
issued_two_Eff = 0.045288 
queue_avg = 22.443405 


dram_util_bins: 0 0 0 0 0 0 0 0 0 0
dram_eff_bins: 0 0 0 0 0 0 0 0 0 0
mrqq: max=64 avg=22.4434

========= L2 cache stats =========
L2_cache_bank[0]: Access = 12625, Miss = 10547, Miss_rate = 0.835, Pending_hits = 34, Reservation_fails = 488
L2_cache_bank[1]: Access = 12656, Miss = 10526, Miss_rate = 0.832, Pending_hits = 54, Reservation_fails = 4302
L2_cache_bank[2]: Access = 12500, Miss = 10529, Miss_rate = 0.842, Pending_hits = 39, Reservation_fails = 1110
L2_cache_bank[3]: Access = 12605, Miss = 10479, Miss_rate = 0.831, Pending_hits = 50, Reservation_fails = 3793
L2_cache_bank[4]: Access = 12448, Miss = 10518, Miss_rate = 0.845, Pending_hits = 42, Reservation_fails = 991
L2_cache_bank[5]: Access = 12689, Miss = 10507, Miss_rate = 0.828, Pending_hits = 48, Reservation_fails = 1272
L2_cache_bank[6]: Access = 12505, Miss = 10494, Miss_rate = 0.839, Pending_hits = 35, Reservation_fails = 339
L2_cache_bank[7]: Access = 12618, Miss = 10507, Miss_rate = 0.833, Pending_hits = 46, Reservation_fails = 5216
L2_cache_bank[8]: Access = 12489, Miss = 10540, Miss_rate = 0.844, Pending_hits = 30, Reservation_fails = 1134
L2_cache_bank[9]: Access = 12497, Miss = 10438, Miss_rate = 0.835, Pending_hits = 63, Reservation_fails = 2870
L2_cache_bank[10]: Access = 12572, Miss = 10492, Miss_rate = 0.835, Pending_hits = 47, Reservation_fails = 188
L2_cache_bank[11]: Access = 12629, Miss = 10447, Miss_rate = 0.827, Pending_hits = 53, Reservation_fails = 2959
L2_cache_bank[12]: Access = 12299, Miss = 10447, Miss_rate = 0.849, Pending_hits = 33, Reservation_fails = 665
L2_cache_bank[13]: Access = 12769, Miss = 10548, Miss_rate = 0.826, Pending_hits = 52, Reservation_fails = 2495
L2_cache_bank[14]: Access = 12486, Miss = 10548, Miss_rate = 0.845, Pending_hits = 34, Reservation_fails = 1189
L2_cache_bank[15]: Access = 12589, Miss = 10483, Miss_rate = 0.833, Pending_hits = 47, Reservation_fails = 2571
L2_cache_bank[16]: Access = 12433, Miss = 10558, Miss_rate = 0.849, Pending_hits = 50, Reservation_fails = 2084
L2_cache_bank[17]: Access = 12678, Miss = 10507, Miss_rate = 0.829, Pending_hits = 36, Reservation_fails = 2136
L2_cache_bank[18]: Access = 12299, Miss = 10414, Miss_rate = 0.847, Pending_hits = 44, Reservation_fails = 682
L2_cache_bank[19]: Access = 12739, Miss = 10506, Miss_rate = 0.825, Pending_hits = 39, Reservation_fails = 2467
L2_cache_bank[20]: Access = 12458, Miss = 10516, Miss_rate = 0.844, Pending_hits = 32, Reservation_fails = 109
L2_cache_bank[21]: Access = 12686, Miss = 10452, Miss_rate = 0.824, Pending_hits = 40, Reservation_fails = 3265
L2_cache_bank[22]: Access = 12470, Miss = 10523, Miss_rate = 0.844, Pending_hits = 52, Reservation_fails = 774
L2_cache_bank[23]: Access = 12640, Miss = 10502, Miss_rate = 0.831, Pending_hits = 35, Reservation_fails = 6392
L2_cache_bank[24]: Access = 12992, Miss = 10552, Miss_rate = 0.812, Pending_hits = 36, Reservation_fails = 3700
L2_cache_bank[25]: Access = 12550, Miss = 10498, Miss_rate = 0.836, Pending_hits = 45, Reservation_fails = 4650
L2_cache_bank[26]: Access = 12799, Miss = 10479, Miss_rate = 0.819, Pending_hits = 56, Reservation_fails = 467
L2_cache_bank[27]: Access = 12615, Miss = 10486, Miss_rate = 0.831, Pending_hits = 30, Reservation_fails = 2460
L2_cache_bank[28]: Access = 12748, Miss = 10485, Miss_rate = 0.822, Pending_hits = 41, Reservation_fails = 15
L2_cache_bank[29]: Access = 12593, Miss = 10451, Miss_rate = 0.830, Pending_hits = 34, Reservation_fails = 5272
L2_cache_bank[30]: Access = 12752, Miss = 10498, Miss_rate = 0.823, Pending_hits = 51, Reservation_fails = 350
L2_cache_bank[31]: Access = 12691, Miss = 10487, Miss_rate = 0.826, Pending_hits = 40, Reservation_fails = 4876
L2_cache_bank[32]: Access = 12706, Miss = 10478, Miss_rate = 0.825, Pending_hits = 55, Reservation_fails = 14
L2_cache_bank[33]: Access = 12790, Miss = 10560, Miss_rate = 0.826, Pending_hits = 33, Reservation_fails = 5851
L2_cache_bank[34]: Access = 12871, Miss = 10561, Miss_rate = 0.821, Pending_hits = 51, Reservation_fails = 786
L2_cache_bank[35]: Access = 12474, Miss = 10389, Miss_rate = 0.833, Pending_hits = 31, Reservation_fails = 5817
L2_cache_bank[36]: Access = 12694, Miss = 10495, Miss_rate = 0.827, Pending_hits = 48, Reservation_fails = 536
L2_cache_bank[37]: Access = 12670, Miss = 10489, Miss_rate = 0.828, Pending_hits = 35, Reservation_fails = 5724
L2_cache_bank[38]: Access = 12890, Miss = 10544, Miss_rate = 0.818, Pending_hits = 51, Reservation_fails = 0
L2_cache_bank[39]: Access = 12821, Miss = 10488, Miss_rate = 0.818, Pending_hits = 31, Reservation_fails = 5188
L2_cache_bank[40]: Access = 12809, Miss = 10494, Miss_rate = 0.819, Pending_hits = 57, Reservation_fails = 1182
L2_cache_bank[41]: Access = 12615, Miss = 10511, Miss_rate = 0.833, Pending_hits = 34, Reservation_fails = 2348
L2_cache_bank[42]: Access = 12561, Miss = 10401, Miss_rate = 0.828, Pending_hits = 59, Reservation_fails = 47
L2_cache_bank[43]: Access = 12594, Miss = 10530, Miss_rate = 0.836, Pending_hits = 43, Reservation_fails = 7022
L2_cache_bank[44]: Access = 12844, Miss = 10567, Miss_rate = 0.823, Pending_hits = 60, Reservation_fails = 1079
L2_cache_bank[45]: Access = 12587, Miss = 10472, Miss_rate = 0.832, Pending_hits = 24, Reservation_fails = 5270
L2_cache_bank[46]: Access = 12549, Miss = 10507, Miss_rate = 0.837, Pending_hits = 55, Reservation_fails = 548
L2_cache_bank[47]: Access = 12615, Miss = 10526, Miss_rate = 0.834, Pending_hits = 32, Reservation_fails = 3271
L2_cache_bank[48]: Access = 12559, Miss = 10481, Miss_rate = 0.835, Pending_hits = 54, Reservation_fails = 921
L2_cache_bank[49]: Access = 12620, Miss = 10505, Miss_rate = 0.832, Pending_hits = 42, Reservation_fails = 4496
L2_cache_bank[50]: Access = 12708, Miss = 10484, Miss_rate = 0.825, Pending_hits = 55, Reservation_fails = 268
L2_cache_bank[51]: Access = 12520, Miss = 10482, Miss_rate = 0.837, Pending_hits = 35, Reservation_fails = 2539
L2_cache_bank[52]: Access = 12643, Miss = 10479, Miss_rate = 0.829, Pending_hits = 48, Reservation_fails = 320
L2_cache_bank[53]: Access = 12610, Miss = 10521, Miss_rate = 0.834, Pending_hits = 40, Reservation_fails = 2648
L2_cache_bank[54]: Access = 12687, Miss = 10564, Miss_rate = 0.833, Pending_hits = 43, Reservation_fails = 1298
L2_cache_bank[55]: Access = 12615, Miss = 10500, Miss_rate = 0.832, Pending_hits = 33, Reservation_fails = 1268
L2_cache_bank[56]: Access = 12645, Miss = 10505, Miss_rate = 0.831, Pending_hits = 46, Reservation_fails = 623
L2_cache_bank[57]: Access = 12698, Miss = 10560, Miss_rate = 0.832, Pending_hits = 34, Reservation_fails = 4003
L2_cache_bank[58]: Access = 12662, Miss = 10492, Miss_rate = 0.829, Pending_hits = 44, Reservation_fails = 838
L2_cache_bank[59]: Access = 12562, Miss = 10524, Miss_rate = 0.838, Pending_hits = 41, Reservation_fails = 3191
L2_cache_bank[60]: Access = 12613, Miss = 10447, Miss_rate = 0.828, Pending_hits = 62, Reservation_fails = 1159
L2_cache_bank[61]: Access = 12534, Miss = 10494, Miss_rate = 0.837, Pending_hits = 33, Reservation_fails = 2123
L2_cache_bank[62]: Access = 12621, Miss = 10502, Miss_rate = 0.832, Pending_hits = 46, Reservation_fails = 353
L2_cache_bank[63]: Access = 12684, Miss = 10496, Miss_rate = 0.827, Pending_hits = 38, Reservation_fails = 5000
L2_total_cache_accesses = 808190
L2_total_cache_misses = 672012
L2_total_cache_miss_rate = 0.8315
L2_total_cache_pending_hits = 2761
L2_total_cache_reservation_fails = 147012
L2_total_cache_breakdown:
	L2_cache_stats_breakdown[GLOBAL_ACC_R][HIT] = 131774
	L2_cache_stats_breakdown[GLOBAL_ACC_R][HIT_RESERVED] = 2761
	L2_cache_stats_breakdown[GLOBAL_ACC_R][MISS] = 165924
	L2_cache_stats_breakdown[GLOBAL_ACC_R][RESERVATION_FAIL] = 147012
	L2_cache_stats_breakdown[GLOBAL_ACC_R][SECTOR_MISS] = 497675
	L2_cache_stats_breakdown[LOCAL_ACC_R][HIT] = 0
	L2_cache_stats_breakdown[LOCAL_ACC_R][HIT_RESERVED] = 0
	L2_cache_stats_breakdown[LOCAL_ACC_R][MISS] = 0
	L2_cache_stats_breakdown[LOCAL_ACC_R][RESERVATION_FAIL] = 0
	L2_cache_stats_breakdown[LOCAL_ACC_R][SECTOR_MISS] = 0
	L2_cache_stats_breakdown[CONST_ACC_R][HIT] = 0
	L2_cache_stats_breakdown[CONST_ACC_R][HIT_RESERVED] = 0
	L2_cache_stats_breakdown[CONST_ACC_R][MISS] = 0
	L2_cache_stats_breakdown[CONST_ACC_R][RESERVATION_FAIL] = 0
	L2_cache_stats_breakdown[CONST_ACC_R][SECTOR_MISS] = 0
	L2_cache_stats_breakdown[TEXTURE_ACC_R][HIT] = 0
	L2_cache_stats_breakdown[TEXTURE_ACC_R][HIT_RESERVED] = 0
	L2_cache_stats_breakdown[TEXTURE_ACC_R][MISS] = 0
	L2_cache_stats_breakdown[TEXTURE_ACC_R][RESERVATION_FAIL] = 0
	L2_cache_stats_breakdown[TEXTURE_ACC_R][SECTOR_MISS] = 0
	L2_cache_stats_breakdown[GLOBAL_ACC_W][HIT] = 1643
	L2_cache_stats_breakdown[GLOBAL_ACC_W][HIT_RESERVED] = 0
	L2_cache_stats_breakdown[GLOBAL_ACC_W][MISS] = 2049
	L2_cache_stats_breakdown[GLOBAL_ACC_W][RESERVATION_FAIL] = 0
	L2_cache_stats_breakdown[GLOBAL_ACC_W][SECTOR_MISS] = 6364
	L2_cache_stats_breakdown[LOCAL_ACC_W][HIT] = 0
	L2_cache_stats_breakdown[LOCAL_ACC_W][HIT_RESERVED] = 0
	L2_cache_stats_breakdown[LOCAL_ACC_W][MISS] = 0
	L2_cache_stats_breakdown[LOCAL_ACC_W][RESERVATION_FAIL] = 0
	L2_cache_stats_breakdown[LOCAL_ACC_W][SECTOR_MISS] = 0
	L2_cache_stats_breakdown[L1_WRBK_ACC][HIT] = 0
	L2_cache_stats_breakdown[L1_WRBK_ACC][HIT_RESERVED] = 0
	L2_cache_stats_breakdown[L1_WRBK_ACC][MISS] = 0
	L2_cache_stats_breakdown[L1_WRBK_ACC][RESERVATION_FAIL] = 0
	L2_cache_stats_breakdown[L1_WRBK_ACC][SECTOR_MISS] = 0
	L2_cache_stats_breakdown[L2_WRBK_ACC][HIT] = 0
	L2_cache_stats_breakdown[L2_WRBK_ACC][HIT_RESERVED] = 0
	L2_cache_stats_breakdown[L2_WRBK_ACC][MISS] = 0
	L2_cache_stats_breakdown[L2_WRBK_ACC][RESERVATION_FAIL] = 0
	L2_cache_stats_breakdown[L2_WRBK_ACC][SECTOR_MISS] = 0
	L2_cache_stats_breakdown[INST_ACC_R][HIT] = 0
	L2_cache_stats_breakdown[INST_ACC_R][HIT_RESERVED] = 0
	L2_cache_stats_breakdown[INST_ACC_R][MISS] = 0
	L2_cache_stats_breakdown[INST_ACC_R][RESERVATION_FAIL] = 0
	L2_cache_stats_breakdown[INST_ACC_R][SECTOR_MISS] = 0
	L2_cache_stats_breakdown[L1_WR_ALLOC_R][HIT] = 0
	L2_cache_stats_breakdown[L1_WR_ALLOC_R][HIT_RESERVED] = 0
	L2_cache_stats_breakdown[L1_WR_ALLOC_R][MISS] = 0
	L2_cache_stats_breakdown[L1_WR_ALLOC_R][RESERVATION_FAIL] = 0
	L2_cache_stats_breakdown[L1_WR_ALLOC_R][SECTOR_MISS] = 0
	L2_cache_stats_breakdown[L2_WR_ALLOC_R][HIT] = 0
	L2_cache_stats_breakdown[L2_WR_ALLOC_R][HIT_RESERVED] = 0
	L2_cache_stats_breakdown[L2_WR_ALLOC_R][MISS] = 0
	L2_cache_stats_breakdown[L2_WR_ALLOC_R][RESERVATION_FAIL] = 0
	L2_cache_stats_breakdown[L2_WR_ALLOC_R][SECTOR_MISS] = 0
	L2_cache_stats_breakdown[GLOBAL_ACC_R][TOTAL_ACCESS] = 798134
	L2_cache_stats_breakdown[GLOBAL_ACC_W][TOTAL_ACCESS] = 10056
L2_total_cache_reservation_fail_breakdown:
	L2_cache_stats_fail_breakdown[GLOBAL_ACC_R][MSHR_ENRTY_FAIL] = 146861
	L2_cache_stats_fail_breakdown[GLOBAL_ACC_R][MSHR_MERGE_ENRTY_FAIL] = 151
L2_cache_data_port_util = 0.040
L2_cache_fill_port_util = 0.199

icnt_total_pkts_mem_to_simt=949885
icnt_total_pkts_simt_to_mem=967332
LD_mem_lat_dist  0 0 0 0 0 0 0 0 0 0 0 0 0 0 0 0 0 0 0 0 0 0 0 0 0 0 0
ST_mem_lat_dist  0 0 0 0 0 0 0 0 0 0 0 0 0 0 0 0 0 0 0 0 0 0 0 0 0 0 0
----------------------------Interconnect-DETAILS--------------------------------
Req_Network_injected_packets_num = 967332
Req_Network_cycles = 51582
Req_Network_injected_packets_per_cycle =      18.7533 
Req_Network_conflicts_per_cycle =      26.6107
Req_Network_conflicts_per_cycle_util =      29.7783
Req_Bank_Level_Parallism =      20.9843
Req_Network_in_buffer_full_per_cycle =      15.5070
Req_Network_in_buffer_avg_util =     129.8208
Req_Network_out_buffer_full_per_cycle =       0.7220
Req_Network_out_buffer_avg_util =     128.3645

Reply_Network_injected_packets_num = 949957
Reply_Network_cycles = 51582
Reply_Network_injected_packets_per_cycle =       18.4164
Reply_Network_conflicts_per_cycle =        6.0048
Reply_Network_conflicts_per_cycle_util =       6.7809
Reply_Bank_Level_Parallism =      20.7958
Reply_Network_in_buffer_full_per_cycle =       0.0000
Reply_Network_in_buffer_avg_util =       0.5098
Reply_Network_out_buffer_full_per_cycle =       0.0000
Reply_Network_out_buffer_avg_util =       0.2302
----------------------------END-of-Interconnect-DETAILS-------------------------


gpgpu_simulation_time = 0 days, 0 hrs, 8 min, 28 sec (508 sec)
gpgpu_simulation_rate = 77827 (inst/sec)
gpgpu_simulation_rate = 101 (cycle/sec)
gpgpu_silicon_slowdown = 11207920x
GPGPU-Sim: *** simulation thread exiting ***
GPGPU-Sim: ** break due to reaching the maximum cycles (or instructions) **
GPGPU-Sim: *** exit detected ***
