

        *** GPGPU-Sim Simulator Version 4.0.0  [build gpgpu-sim_git-commit-ffe0a1a00e984ecce9bf36e17ab94c4de0de8108_modified_0.0] ***


GPGPU-Sim PTX: simulation mode 0 (can change with PTX_SIM_MODE_FUNC environment variable:
               1=functional simulation only, 0=detailed performance simulator)
GPGPU-Sim PTX: overriding embedded ptx with ptx file (PTX_SIM_USE_PTX_FILE is set)
GPGPU-Sim: Configuration options:

-save_embedded_ptx                      0 # saves ptx files embedded in binary as <n>.ptx
-keep                                   0 # keep intermediate files created by GPGPU-Sim when interfacing with external programs
-gpgpu_ptx_save_converted_ptxplus                    0 # Saved converted ptxplus to a file
-gpgpu_occupancy_sm_number                   70 # The SM number to pass to ptxas when getting register usage for computing GPU occupancy. This parameter is required in the config.
-ptx_opcode_latency_int      4,13,4,5,145,21 # Opcode latencies for integers <ADD,MAX,MUL,MAD,DIV,SHFL>Default 1,1,19,25,145,32
-ptx_opcode_latency_fp          4,13,4,5,39 # Opcode latencies for single precision floating points <ADD,MAX,MUL,MAD,DIV>Default 1,1,1,1,30
-ptx_opcode_latency_dp         8,19,8,8,330 # Opcode latencies for double precision floating points <ADD,MAX,MUL,MAD,DIV>Default 8,8,8,8,335
-ptx_opcode_latency_sfu                  100 # Opcode latencies for SFU instructionsDefault 8
-ptx_opcode_latency_tesnor                   64 # Opcode latencies for Tensor instructionsDefault 64
-ptx_opcode_initiation_int          2,2,2,2,8,4 # Opcode initiation intervals for integers <ADD,MAX,MUL,MAD,DIV,SHFL>Default 1,1,4,4,32,4
-ptx_opcode_initiation_fp            2,2,2,2,4 # Opcode initiation intervals for single precision floating points <ADD,MAX,MUL,MAD,DIV>Default 1,1,1,1,5
-ptx_opcode_initiation_dp          4,4,4,4,130 # Opcode initiation intervals for double precision floating points <ADD,MAX,MUL,MAD,DIV>Default 8,8,8,8,130
-ptx_opcode_initiation_sfu                    8 # Opcode initiation intervals for sfu instructionsDefault 8
-ptx_opcode_initiation_tensor                   64 # Opcode initiation intervals for tensor instructionsDefault 64
-cdp_latency         7200,8000,100,12000,1600 # CDP API latency <cudaStreamCreateWithFlags, cudaGetParameterBufferV2_init_perWarp, cudaGetParameterBufferV2_perKernel, cudaLaunchDeviceV2_init_perWarp, cudaLaunchDevicV2_perKernel>Default 7200,8000,100,12000,1600
-network_mode                           2 # Interconnection network mode
-inter_config_file                   mesh # Interconnection network config file
-icnt_in_buffer_limit                  512 # in_buffer_limit
-icnt_out_buffer_limit                  512 # out_buffer_limit
-icnt_subnets                           2 # subnets
-icnt_arbiter_algo                      1 # arbiter_algo
-icnt_verbose                           0 # inct_verbose
-icnt_grant_cycles                      1 # grant_cycles
-gpgpu_ptx_use_cuobjdump                    1 # Use cuobjdump to extract ptx and sass from binaries
-gpgpu_experimental_lib_support                    0 # Try to extract code from cuda libraries [Broken because of unknown cudaGetExportTable]
-checkpoint_option                      0 #  checkpointing flag (0 = no checkpoint)
-checkpoint_kernel                      1 #  checkpointing during execution of which kernel (1- 1st kernel)
-checkpoint_CTA                         0 #  checkpointing after # of CTA (< less than total CTA)
-resume_option                          0 #  resume flag (0 = no resume)
-resume_kernel                          0 #  Resume from which kernel (1= 1st kernel)
-resume_CTA                             0 #  resume from which CTA 
-checkpoint_CTA_t                       0 #  resume from which CTA 
-checkpoint_insn_Y                      0 #  resume from which CTA 
-gpgpu_ptx_convert_to_ptxplus                    0 # Convert SASS (native ISA) to ptxplus and run ptxplus
-gpgpu_ptx_force_max_capability                   70 # Force maximum compute capability
-gpgpu_ptx_inst_debug_to_file                    0 # Dump executed instructions' debug information to file
-gpgpu_ptx_inst_debug_file       inst_debug.txt # Executed instructions' debug output file
-gpgpu_ptx_inst_debug_thread_uid                    1 # Thread UID for executed instructions' debug output
-gpgpu_n_mem_for_l2wb_pcommit                   32 # number of memory modules (e.g. memory controllers) in gpu
-gpgpu_n_sub_partition_per_mchannel_for_l2wb_pcommit                    2 # number of memory subpartition in each memory module
-gpgpu_dl2_bsize_for_l2wb_pcommit                  128 # default 128 bytes
-gpgpu_simd_model                       1 # 1 = post-dominator
-gpgpu_shader_core_pipeline              2048:32 # shader core pipeline config, i.e., {<nthread>:<warpsize>}
-gpgpu_tex_cache:l1  N:4:128:256,L:R:m:N:L,T:512:8,128:2 # per-shader L1 texture cache  (READ-ONLY) config  {<nsets>:<bsize>:<assoc>,<rep>:<wr>:<alloc>:<wr_alloc>,<mshr>:<N>:<merge>,<mq>:<rf>}
-gpgpu_const_cache:l1 N:128:64:8,L:R:f:N:L,S:2:64,4 # per-shader L1 constant memory cache  (READ-ONLY) config  {<nsets>:<bsize>:<assoc>,<rep>:<wr>:<alloc>:<wr_alloc>,<mshr>:<N>:<merge>,<mq>} 
-gpgpu_cache:il1     N:64:128:16,L:R:f:N:L,S:2:48,4 # shader L1 instruction cache config  {<nsets>:<bsize>:<assoc>,<rep>:<wr>:<alloc>:<wr_alloc>,<mshr>:<N>:<merge>,<mq>} 
-gpgpu_cache:dl1     S:1:128:256,L:L:s:N:L,A:256:8,16:0,32 # per-shader L1 data cache config  {<nsets>:<bsize>:<assoc>,<rep>:<wr>:<alloc>:<wr_alloc>,<mshr>:<N>:<merge>,<mq> | none}
-gpgpu_l1_banks                         4 # The number of L1 cache banks
-gpgpu_l1_banks_byte_interleaving                   32 # l1 banks byte interleaving granularity
-gpgpu_l1_banks_hashing_function                    0 # l1 banks hashing function
-gpgpu_l1_latency                      20 # L1 Hit Latency
-gpgpu_smem_latency                    20 # smem Latency
-gpgpu_cache:dl1PrefL1                 none # per-shader L1 data cache config  {<nsets>:<bsize>:<assoc>,<rep>:<wr>:<alloc>:<wr_alloc>,<mshr>:<N>:<merge>,<mq> | none}
-gpgpu_cache:dl1PrefShared                 none # per-shader L1 data cache config  {<nsets>:<bsize>:<assoc>,<rep>:<wr>:<alloc>:<wr_alloc>,<mshr>:<N>:<merge>,<mq> | none}
-gpgpu_gmem_skip_L1D                    0 # global memory access skip L1D cache (implements -Xptxas -dlcm=cg, default=no skip)
-gpgpu_perfect_mem                      0 # enable perfect memory mode (no cache miss)
-n_regfile_gating_group                    4 # group of lanes that should be read/written together)
-gpgpu_clock_gated_reg_file                    0 # enable clock gated reg file for power calculations
-gpgpu_clock_gated_lanes                    0 # enable clock gated lanes for power calculations
-gpgpu_shader_registers                65536 # Number of registers per shader core. Limits number of concurrent CTAs. (default 8192)
-gpgpu_registers_per_block                65536 # Maximum number of registers per CTA. (default 8192)
-gpgpu_ignore_resources_limitation                    0 # gpgpu_ignore_resources_limitation (default 0)
-gpgpu_shader_cta                      32 # Maximum number of concurrent CTAs in shader (default 8)
-gpgpu_num_cta_barriers                   16 # Maximum number of named barriers per CTA (default 16)
-gpgpu_n_clusters                      80 # number of processing clusters
-gpgpu_n_cores_per_cluster                    1 # number of simd cores per cluster
-gpgpu_n_cluster_ejection_buffer_size                   32 # number of packets in ejection buffer
-gpgpu_n_ldst_response_buffer_size                    2 # number of response packets in ld/st unit ejection buffer
-gpgpu_shmem_per_block                65536 # Size of shared memory per thread block or CTA (default 48kB)
-gpgpu_shmem_size                   98304 # Size of shared memory per shader core (default 16kB)
-gpgpu_adaptive_cache_config            536870913 # adaptive_cache_config
-gpgpu_shmem_sizeDefault                98304 # Size of shared memory per shader core (default 16kB)
-gpgpu_shmem_size_PrefL1                16384 # Size of shared memory per shader core (default 16kB)
-gpgpu_shmem_size_PrefShared                16384 # Size of shared memory per shader core (default 16kB)
-gpgpu_shmem_num_banks                   32 # Number of banks in the shared memory in each shader core (default 16)
-gpgpu_shmem_limited_broadcast                    0 # Limit shared memory to do one broadcast per cycle (default on)
-gpgpu_shmem_warp_parts                    1 # Number of portions a warp is divided into for shared memory bank conflict check 
-gpgpu_mem_unit_ports                    1 # The number of memory transactions allowed per core cycle
-gpgpu_shmem_warp_parts                    1 # Number of portions a warp is divided into for shared memory bank conflict check 
-gpgpu_warpdistro_shader                   -1 # Specify which shader core to collect the warp size distribution from
-gpgpu_warp_issue_shader                    0 # Specify which shader core to collect the warp issue distribution from
-gpgpu_local_mem_map                    1 # Mapping from local memory space address to simulated GPU physical address space (default = enabled)
-gpgpu_num_reg_banks                   16 # Number of register banks (default = 8)
-gpgpu_reg_bank_use_warp_id                    0 # Use warp ID in mapping registers to banks (default = off)
-gpgpu_sub_core_model                    1 # Sub Core Volta/Pascal model (default = off)
-gpgpu_enable_specialized_operand_collector                    0 # enable_specialized_operand_collector
-gpgpu_operand_collector_num_units_sp                    4 # number of collector units (default = 4)
-gpgpu_operand_collector_num_units_dp                    0 # number of collector units (default = 0)
-gpgpu_operand_collector_num_units_sfu                    4 # number of collector units (default = 4)
-gpgpu_operand_collector_num_units_int                    0 # number of collector units (default = 0)
-gpgpu_operand_collector_num_units_tensor_core                    4 # number of collector units (default = 4)
-gpgpu_operand_collector_num_units_mem                    2 # number of collector units (default = 2)
-gpgpu_operand_collector_num_units_gen                    8 # number of collector units (default = 0)
-gpgpu_operand_collector_num_in_ports_sp                    1 # number of collector unit in ports (default = 1)
-gpgpu_operand_collector_num_in_ports_dp                    0 # number of collector unit in ports (default = 0)
-gpgpu_operand_collector_num_in_ports_sfu                    1 # number of collector unit in ports (default = 1)
-gpgpu_operand_collector_num_in_ports_int                    0 # number of collector unit in ports (default = 0)
-gpgpu_operand_collector_num_in_ports_tensor_core                    1 # number of collector unit in ports (default = 1)
-gpgpu_operand_collector_num_in_ports_mem                    1 # number of collector unit in ports (default = 1)
-gpgpu_operand_collector_num_in_ports_gen                    8 # number of collector unit in ports (default = 0)
-gpgpu_operand_collector_num_out_ports_sp                    1 # number of collector unit in ports (default = 1)
-gpgpu_operand_collector_num_out_ports_dp                    0 # number of collector unit in ports (default = 0)
-gpgpu_operand_collector_num_out_ports_sfu                    1 # number of collector unit in ports (default = 1)
-gpgpu_operand_collector_num_out_ports_int                    0 # number of collector unit in ports (default = 0)
-gpgpu_operand_collector_num_out_ports_tensor_core                    1 # number of collector unit in ports (default = 1)
-gpgpu_operand_collector_num_out_ports_mem                    1 # number of collector unit in ports (default = 1)
-gpgpu_operand_collector_num_out_ports_gen                    8 # number of collector unit in ports (default = 0)
-gpgpu_coalesce_arch                   60 # Coalescing arch (GT200 = 13, Fermi = 20)
-gpgpu_num_sched_per_core                    4 # Number of warp schedulers per core
-gpgpu_max_insn_issue_per_warp                    1 # Max number of instructions that can be issued per warp in one cycle by scheduler (either 1 or 2)
-gpgpu_dual_issue_diff_exec_units                    1 # should dual issue use two different execution unit resources (Default = 1)
-gpgpu_simt_core_sim_order                    1 # Select the simulation order of cores in a cluster (0=Fix, 1=Round-Robin)
-gpgpu_pipeline_widths 4,4,4,4,4,4,4,4,4,4,8,4,4 # Pipeline widths ID_OC_SP,ID_OC_DP,ID_OC_INT,ID_OC_SFU,ID_OC_MEM,OC_EX_SP,OC_EX_DP,OC_EX_INT,OC_EX_SFU,OC_EX_MEM,EX_WB,ID_OC_TENSOR_CORE,OC_EX_TENSOR_CORE
-gpgpu_tensor_core_avail                    1 # Tensor Core Available (default=0)
-gpgpu_num_sp_units                     4 # Number of SP units (default=1)
-gpgpu_num_dp_units                     4 # Number of DP units (default=0)
-gpgpu_num_int_units                    4 # Number of INT units (default=0)
-gpgpu_num_sfu_units                    4 # Number of SF units (default=1)
-gpgpu_num_tensor_core_units                    4 # Number of tensor_core units (default=1)
-gpgpu_num_mem_units                    1 # Number if ldst units (default=1) WARNING: not hooked up to anything
-gpgpu_scheduler                      gto # Scheduler configuration: < lrr | gto | two_level_active > If two_level_active:<num_active_warps>:<inner_prioritization>:<outer_prioritization>For complete list of prioritization values see shader.h enum scheduler_prioritization_typeDefault: gto
-gpgpu_concurrent_kernel_sm                    0 # Support concurrent kernels on a SM (default = disabled)
-gpgpu_perfect_inst_const_cache                    1 # perfect inst and const cache mode, so all inst and const hits in the cache(default = disabled)
-gpgpu_inst_fetch_throughput                    4 # the number of fetched intruction per warp each cycle
-gpgpu_reg_file_port_throughput                    2 # the number ports of the register file
-specialized_unit_1         0,4,4,4,4,BRA # specialized unit config {<enabled>,<num_units>:<latency>:<initiation>,<ID_OC_SPEC>:<OC_EX_SPEC>,<NAME>}
-specialized_unit_2         0,4,4,4,4,BRA # specialized unit config {<enabled>,<num_units>:<latency>:<initiation>,<ID_OC_SPEC>:<OC_EX_SPEC>,<NAME>}
-specialized_unit_3         0,4,4,4,4,BRA # specialized unit config {<enabled>,<num_units>:<latency>:<initiation>,<ID_OC_SPEC>:<OC_EX_SPEC>,<NAME>}
-specialized_unit_4         0,4,4,4,4,BRA # specialized unit config {<enabled>,<num_units>:<latency>:<initiation>,<ID_OC_SPEC>:<OC_EX_SPEC>,<NAME>}
-specialized_unit_5         0,4,4,4,4,BRA # specialized unit config {<enabled>,<num_units>:<latency>:<initiation>,<ID_OC_SPEC>:<OC_EX_SPEC>,<NAME>}
-specialized_unit_6         0,4,4,4,4,BRA # specialized unit config {<enabled>,<num_units>:<latency>:<initiation>,<ID_OC_SPEC>:<OC_EX_SPEC>,<NAME>}
-specialized_unit_7         0,4,4,4,4,BRA # specialized unit config {<enabled>,<num_units>:<latency>:<initiation>,<ID_OC_SPEC>:<OC_EX_SPEC>,<NAME>}
-specialized_unit_8         0,4,4,4,4,BRA # specialized unit config {<enabled>,<num_units>:<latency>:<initiation>,<ID_OC_SPEC>:<OC_EX_SPEC>,<NAME>}
-gpgpu_perf_sim_memcpy                    1 # Fill the L2 cache on memcpy
-gpgpu_simple_dram_model                    0 # simple_dram_model with fixed latency and BW
-gpgpu_dram_scheduler                    1 # 0 = fifo, 1 = FR-FCFS (defaul)
-gpgpu_dram_partition_queues          64:64:64:64 # i2$:$2d:d2$:$2i
-l2_ideal                               0 # Use a ideal L2 cache that always hit
-gpgpu_cache:dl2     S:32:128:24,L:B:m:L:P,A:192:4,32:0,32 # unified banked L2 data cache config  {<nsets>:<bsize>:<assoc>,<rep>:<wr>:<alloc>:<wr_alloc>,<mshr>:<N>:<merge>,<mq>}
-gpgpu_cache:dl2_texture_only                    0 # L2 cache used for texture only
-gpgpu_n_mem                           32 # number of memory modules (e.g. memory controllers) in gpu
-gpgpu_n_sub_partition_per_mchannel                    2 # number of memory subpartition in each memory module
-gpgpu_n_mem_per_ctrlr                    1 # number of memory chips per memory controller
-gpgpu_memlatency_stat                   14 # track and display latency statistics 0x2 enables MC, 0x4 enables queue logs
-gpgpu_frfcfs_dram_sched_queue_size                   64 # 0 = unlimited (default); # entries per chip
-gpgpu_dram_return_queue_size                  192 # 0 = unlimited (default); # entries per chip
-gpgpu_dram_buswidth                   16 # default = 4 bytes (8 bytes per cycle at DDR)
-gpgpu_dram_burst_length                    2 # Burst length of each DRAM request (default = 4 data bus cycle)
-dram_data_command_freq_ratio                    2 # Frequency ratio between DRAM data bus and command bus (default = 2 times, i.e. DDR)
-gpgpu_dram_timing_opt nbk=16:CCD=1:RRD=3:RCD=12:RAS=28:RP=12:RC=40: CL=12:WL=2:CDLR=3:WR=10:nbkgrp=4:CCDL=2:RTPL=3 # DRAM timing parameters = {nbk:tCCD:tRRD:tRCD:tRAS:tRP:tRC:CL:WL:tCDLR:tWR:nbkgrp:tCCDL:tRTPL}
-gpgpu_l2_rop_latency                  160 # ROP queue latency (default 85)
-dram_latency                         200 # DRAM latency (default 30)
-dram_write_latency                   600 # DRAM write latency (default 100)
-dram_dual_bus_interface                    1 # dual_bus_interface (default = 0) 
-dram_bnk_indexing_policy                    0 # dram_bnk_indexing_policy (0 = normal indexing, 1 = Xoring with the higher bits) (Default = 0)
-dram_bnkgrp_indexing_policy                    1 # dram_bnkgrp_indexing_policy (0 = take higher bits, 1 = take lower bits) (Default = 0)
-dram_seperate_write_queue_enable                    0 # Seperate_Write_Queue_Enable
-dram_write_queue_size             32:28:16 # Write_Queue_Size
-dram_elimnate_rw_turnaround                    0 # elimnate_rw_turnaround i.e set tWTR and tRTW = 0
-icnt_flit_size                        40 # icnt_flit_size
-gpgpu_mem_addr_mapping dramid@8;00000000.00000000.00000000.00000000.0000RRRR.RRRRRRRR.RBBBCCCB.CCCSSSSS # mapping memory address to dram model {dramid@<start bit>;<memory address map>}
-gpgpu_mem_addr_test                    0 # run sweep test to check address mapping for aliased address
-gpgpu_mem_address_mask                    1 # 0 = old addressing mask, 1 = new addressing mask, 2 = new add. mask + flipped bank sel and chip sel bits
-gpgpu_memory_partition_indexing                    0 # 0 = no indexing, 1 = bitwise xoring, 2 = IPoly, 3 = custom indexing
-gpuwattch_xml_file         gpuwattch.xml # GPUWattch XML file
-power_simulation_enabled                    0 # Turn on power simulator (1=On, 0=Off)
-power_per_cycle_dump                    0 # Dump detailed power output each cycle
-power_trace_enabled                    0 # produce a file for the power trace (1=On, 0=Off)
-power_trace_zlevel                     6 # Compression level of the power trace output log (0=no comp, 9=highest)
-steady_power_levels_enabled                    0 # produce a file for the steady power levels (1=On, 0=Off)
-steady_state_definition                  8:4 # allowed deviation:number of samples
-gpgpu_max_cycle                        0 # terminates gpu simulation early (0 = no limit)
-gpgpu_max_insn                         0 # terminates gpu simulation early (0 = no limit)
-gpgpu_max_cta                          0 # terminates gpu simulation early (0 = no limit)
-gpgpu_max_completed_cta                  256 # terminates gpu simulation early (0 = no limit)
-gpgpu_runtime_stat                   500 # display runtime statistics such as dram utilization {<freq>:<flag>}
-liveness_message_freq                    1 # Minimum number of seconds between simulation liveness messages (0 = always print)
-gpgpu_compute_capability_major                    7 # Major compute capability version number
-gpgpu_compute_capability_minor                    0 # Minor compute capability version number
-gpgpu_flush_l1_cache                    1 # Flush L1 cache at the end of each kernel call
-gpgpu_flush_l2_cache                    0 # Flush L2 cache at the end of each kernel call
-gpgpu_deadlock_detect                    1 # Stop the simulation at deadlock (1=on (default), 0=off)
-gpgpu_ptx_instruction_classification                    0 # if enabled will classify ptx instruction types per kernel (Max 255 kernels now)
-gpgpu_ptx_sim_mode                     0 # Select between Performance (default) or Functional simulation (1)
-gpgpu_clock_domains 1132.0:1132.0:1132.0:850.0 # Clock Domain Frequencies in MhZ {<Core Clock>:<ICNT Clock>:<L2 Clock>:<DRAM Clock>}
-gpgpu_max_concurrent_kernel                    8 # maximum kernels that can run concurrently on GPU
-gpgpu_cflog_interval                    0 # Interval between each snapshot in control flow logger
-visualizer_enabled               e2c96ab854920b9b814ed0b032e65335  /home/pli11/Videos/parboil_benchmark/parboil/benchmarks/spmv/build/nvm_default/spmv
Extracting PTX file and ptxas options    1: spmv.1.sm_70.ptx -arch=sm_70
      0 # Turn on visualizer output (1=On, 0=Off)
-visualizer_outputfile                 NULL # Specifies the output log file for visualizer
-visualizer_zlevel                      6 # Compression level of the visualizer output log (0=no comp, 9=highest)
-gpgpu_stack_size_limit                 1024 # GPU thread stack size
-gpgpu_heap_size_limit              8388608 # GPU malloc heap size 
-gpgpu_runtime_sync_depth_limit                    2 # GPU device runtime synchronize depth
-gpgpu_runtime_pending_launch_count_limit                 2048 # GPU device runtime pending launch count
-trace_enabled                          0 # Turn on traces
-trace_components                    none # comma seperated list of traces to enable. Complete list found in trace_streams.tup. Default none
-trace_sampling_core                    0 # The core which is printed using CORE_DPRINTF. Default 0
-trace_sampling_memory_partition                   -1 # The memory partition which is printed using MEMPART_DPRINTF. Default -1 (i.e. all)
-enable_ptx_file_line_stats                    1 # Turn on PTX source line statistic profiling. (1 = On)
-ptx_line_stats_filename gpgpu_inst_stats.txt # Output file for PTX source line statistics.
-gpgpu_kernel_launch_latency                 5000 # Kernel launch latency in cycles. Default: 0
-gpgpu_cdp_enabled                      0 # Turn on CDP
-gpgpu_TB_launch_latency                    0 # thread block launch latency in cycles. Default: 0
DRAM Timing Options:
nbk                                    16 # number of banks
CCD                                     1 # column to column delay
RRD                                     3 # minimal delay between activation of rows in different banks
RCD                                    12 # row to column delay
RAS                                    28 # time needed to activate row
RP                                     12 # time needed to precharge (deactivate) row
RC                                     40 # row cycle time
CDLR                                    3 # switching from write to read (changes tWTR)
WR                                     10 # last data-in to row precharge
CL                                     12 # CAS latency
WL                                      2 # Write latency
nbkgrp                                  4 # number of bank groups
CCDL                                    2 # column to column delay between accesses to different bank groups
RTPL                                    3 # read to precharge delay between accesses to different bank groups
Total number of memory sub partition = 64
addr_dec_mask[CHIP]  = 0000000000001f00 	high:13 low:8
addr_dec_mask[BK]    = 00000000000e2000 	high:20 low:13
addr_dec_mask[ROW]   = 00000001fff00000 	high:33 low:20
addr_dec_mask[COL]   = 000000000001c0ff 	high:17 low:0
addr_dec_mask[BURST] = 000000000000001f 	high:5 low:0
sub_partition_id_mask = 0000000000002000
GPGPU-Sim uArch: clock freqs: 1132000000.000000:1132000000.000000:1132000000.000000:850000000.000000
GPGPU-Sim uArch: clock periods: 0.00000000088339222615:0.00000000088339222615:0.00000000088339222615:0.00000000117647058824
*** Initializing Memory Statistics ***
GPGPU-Sim uArch: performance model initialization complete.
self exe links to: /home/pli11/Videos/parboil_benchmark/parboil/benchmarks/spmv/build/nvm_default/spmv
self exe links to: /home/pli11/Videos/parboil_benchmark/parboil/benchmarks/spmv/build/nvm_default/spmv
10.1
GPGPU-Sim PTX: __cudaRegisterFatBinary, fat_cubin_handle = 1, filename=default
self exe links to: /home/pli11/Videos/parboil_benchmark/parboil/benchmarks/spmv/build/nvm_default/spmv
Running md5sum using "md5sum /home/pli11/Videos/parboil_benchmark/parboil/benchmarks/spmv/build/nvm_default/spmv "
self exe links to: /home/pli11/Videos/parboil_benchmark/parboil/benchmarks/spmv/build/nvm_default/spmv
Extracting specific PTX file named spmv.1.sm_70.ptx 
GPGPU-Sim PTX: __cudaRegisterFunction _Z13spmv_jds_nvmbPfPKfPKiS3_S1_S3_i : hostFun 0x0x40402b, fat_cubin_handle = 1
GPGPU-Sim PTX: Parsing spmv.1.sm_70.ptx
GPGPU-Sim PTX: allocating global region for "tex_x_float" from 0x100 to 0x104 (global memory space)
GPGPU-Sim PTX: allocating constant region for "jds_ptr_int" from 0x180 to 0x4fa0 (global memory space) 1
GPGPU-Sim PTX: allocating constant region for "sh_zcnt_int" from 0x5000 to 0x9e20 (global memory space) 2
GPGPU-Sim PTX: allocating global region for "NVM_log" from 0x9e80 to 0x4009e80 (global memory space)
GPGPU-Sim PTX: allocating global region for "NVM_flag" from 0x4009e80 to 0x4409e80 (global memory space)
GPGPU-Sim PTX: instruction assembly for function '_Z13spmv_jds_nvmoPfPKfPKiS3_S1_S3_i'...   done.
GPGPU-Sim PTX: instruction assembly for function '_Z13spmv_jds_nvmuPfPKfPKiS3_S1_S3_i'...   done.
GPGPU-Sim PTX: instruction assembly for function '_Z13spmv_jds_nvm1PfPKfPKiS3_S1_S3_i'...   done.
GPGPU-Sim PTX: instruction assembly for function '_Z13spmv_jds_nvm2PfPKfPKiS3_S1_S3_i'...   done.
GPGPU-Sim PTX: instruction assembly for function '_Z13spmv_jds_nvmgPfPKfPKiS3_S1_S3_i'...   done.
GPGPU-Sim PTX: instruction assembly for function '_Z13spmv_jds_nvm3PfPKfPKiS3_S1_S3_i'...   done.
GPGPU-Sim PTX: instruction assembly for function '_Z13spmv_jds_nvm4PfPKfPKiS3_S1_S3_i'...   done.
GPGPU-Sim PTX: instruction assembly for function '_Z13spmv_jds_nvmiPfPKfPKiS3_S1_S3_i'...   done.
GPGPU-Sim PTX: instruction assembly for function '_Z13spmv_jds_nvm6PfPKfPKiS3_S1_S3_i'...   done.
GPGPU-Sim PTX: instruction assembly for function '_Z13spmv_jds_nvm5PfPKfPKiS3_S1_S3_i'...   done.
GPGPU-Sim PTX: instruction assembly for function '_Z8spmv_jdsPfPKfPKiS3_S1_S3_i'...   done.
GPGPU-Sim PTX: instruction assembly for function '_Z13spmv_jds_nvmbPfPKfPKiS3_S1_S3_i'...   done.
GPGPU-Sim PTX: finished parsing EMBEDDED .ptx file spmv.1.sm_70.ptx
GPGPU-Sim PTX: loading globals with explicit initializers... 
GPGPU-Sim PTX: finished loading globals (0 bytes total).
GPGPU-Sim PTX: loading constants with explicit initializers...  done.
GPGPU-Sim PTX: Loading PTXInfo from spmv.1.sm_70.ptx
GPGPU-Sim PTX: Binary info : gmem=71303168, cmem=40000
GPGPU-Sim PTX: Kernel '_Z13spmv_jds_nvmbPfPKfPKiS3_S1_S3_i' : regs=31, lmem=0, smem=0, cmem=412
GPGPU-Sim PTX: Kernel '_Z8spmv_jdsPfPKfPKiS3_S1_S3_i' : regs=31, lmem=0, smem=0, cmem=412
GPGPU-Sim PTX: Kernel '_Z13spmv_jds_nvm5PfPKfPKiS3_S1_S3_i' : regs=32, lmem=0, smem=0, cmem=412
GPGPU-Sim PTX: Kernel '_Z13spmv_jds_nvm6PfPKfPKiS3_S1_S3_i' : regs=32, lmem=0, smem=0, cmem=412
GPGPU-Sim PTX: Kernel '_Z13spmv_jds_nvmiPfPKfPKiS3_S1_S3_i' : regs=32, lmem=0, smem=0, cmem=412
GPGPU-Sim PTX: Kernel '_Z13spmv_jds_nvm4PfPKfPKiS3_S1_S3_i' : regs=32, lmem=0, smem=0, cmem=412
GPGPU-Sim PTX: Kernel '_Z13spmv_jds_nvm3PfPKfPKiS3_S1_S3_i' : regs=32, lmem=0, smem=0, cmem=412
GPGPU-Sim PTX: Kernel '_Z13spmv_jds_nvmgPfPKfPKiS3_S1_S3_i' : regs=32, lmem=0, smem=0, cmem=412
GPGPU-Sim PTX: Kernel '_Z13spmv_jds_nvm2PfPKfPKiS3_S1_S3_i' : regs=31, lmem=0, smem=0, cmem=412
GPGPU-Sim PTX: Kernel '_Z13spmv_jds_nvm1PfPKfPKiS3_S1_S3_i' : regs=31, lmem=0, smem=0, cmem=412
GPGPU-Sim PTX: Kernel '_Z13spmv_jds_nvmuPfPKfPKiS3_S1_S3_i' : regs=31, lmem=0, smem=0, cmem=412
GPGPU-Sim PTX: Kernel '_Z13spmv_jds_nvmoPfPKfPKiS3_S1_S3_i' : regs=31, lmem=0, smem=0, cmem=412
GPGPU-Sim PTX: __cudaRegisterFunction _Z8spmv_jdsPfPKfPKiS3_S1_S3_i : hostFun 0x0x403e2e, fat_cubin_handle = 1
GPGPU-Sim PTX: __cudaRegisterFunction _Z13spmv_jds_nvm5PfPKfPKiS3_S1_S3_i : hostFun 0x0x403c31, fat_cubin_handle = 1
GPGPU-Sim PTX: __cudaRegisterFunction _Z13spmv_jds_nvm6PfPKfPKiS3_S1_S3_i : hostFun 0x0x403a34, fat_cubin_handle = 1
GPGPU-Sim PTX: __cudaRegisterFunction _Z13spmv_jds_nvmiPfPKfPKiS3_S1_S3_i : hostFun 0x0x403837, fat_cubin_handle = 1
GPGPU-Sim PTX: __cudaRegisterFunction _Z13spmv_jds_nvm4PfPKfPKiS3_S1_S3_i : hostFun 0x0x40363a, fat_cubin_handle = 1
GPGPU-Sim PTX: __cudaRegisterFunction _Z13spmv_jds_nvm3PfPKfPKiS3_S1_S3_i : hostFun 0x0x40343d, fat_cubin_handle = 1
GPGPU-Sim PTX: __cudaRegisterFunction _Z13spmv_jds_nvmgPfPKfPKiS3_S1_S3_i : hostFun 0x0x403240, fat_cubin_handle = 1
GPGPU-Sim PTX: __cudaRegisterFunction _Z13spmv_jds_nvm2PfPKfPKiS3_S1_S3_i : hostFun 0x0x403043, fat_cubin_handle = 1
GPGPU-Sim PTX: __cudaRegisterFunction _Z13spmv_jds_nvm1PfPKfPKiS3_S1_S3_i : hostFun 0x0x402e46, fat_cubin_handle = 1
GPGPU-Sim PTX: __cudaRegisterFunction _Z13spmv_jds_nvmuPfPKfPKiS3_S1_S3_i : hostFun 0x0x402c49, fat_cubin_handle = 1
GPGPU-Sim PTX: __cudaRegisterFunction _Z13spmv_jds_nvmoPfPKfPKiS3_S1_S3_i : hostFun 0x0x402a4c, fat_cubin_handle = 1
GPGPU-Sim PTX: in __cudaRegisterTexture:
GPGPU-Sim PTX:   int dim = 1
GPGPU-Sim PTX:   int norm = 0
GPGPU-Sim PTX:   int ext = 0
GPGPU-Sim PTX:   Execution warning: Not finished implementing "void __cudaRegisterTextureInternal(void**, const textureReference*, const void**, const char*, int, int, int, gpgpu_context*)"
GPGPU-Sim PTX: __cudaRegisterVar: hostVar = 0x60e2e0; deviceAddress = jds_ptr_int; deviceName = jds_ptr_int
GPGPU-Sim PTX: __cudaRegisterVar: Registering const memory space of 20000 bytes
GPGPU-Sim PTX registering constant jds_ptr_int (20000 bytes) to name mapping
GPGPU-Sim PTX: __cudaRegisterVar: hostVar = 0x613100; deviceAddress = sh_zcnt_int; deviceName = sh_zcnt_int
GPGPU-Sim PTX: __cudaRegisterVar: Registering const memory space of 20000 bytes
GPGPU-Sim PTX registering constant sh_zcnt_int (20000 bytes) to name mapping
GPGPU-Sim PTX: __cudaRegisterVar: hostVar = 0x617f20; deviceAddress = NVM_log; deviceName = NVM_log
GPGPU-Sim PTX: __cudaRegisterVar: Registering const memory space of 67108864 bytes
GPGPU-Sim PTX registering global NVM_log hostVar to name mapping
GPGPU-Sim PTX: __cudaRegisterVar: hostVar = 0x4617f20; deviceAddress = NVM_flag; deviceName = NVM_flag
GPGPU-Sim PTX: __cudaRegisterVar: Registering const memory space of 4194304 bytes
GPGPU-Sim PTX registering global NVM_flag hostVar to name mapping
/home/pli11/Videos/parboil_benchmark/parboil/benchmarks/spmv/build/nvm_default/spmv -i /home/pli11/Videos/parboil_benchmark/parboil/datasets/spmv/large/input/Dubcova3.mtx.bin,/home/pli11/Videos/parboil_benchmark/parboil/datasets/spmv/large/input/vector.bin -o /home/pli11/Videos/parboil_benchmark/parboil/benchmarks/spmv/run/large/Dubcova3.mtx.out 
CUDA accelerated sparse matrix vector multiplication****
Original version by Li-Wen Chang <lchang20@illinois.edu> and Shengzhao Wu<wu14@illinois.edu>
This version maintained by Chris Rodrigues  ***********
Converting COO to JDS format (146689x146689)
3636649 matrix entries, warp size = 32, row padding align = 1, pack size = 1

Padding data....146720 rows, 4585 groups
Allocating data space: 3637664 entries (0.027903% padding)
Finished converting.
JDS format has 146720 columns, 49 rows.
nz_count_len = 4585
GPGPU-Sim PTX: cudaMemcpyToSymbol: symbol = 0x60e2e0
GPGPU-Sim PTX: starting gpgpu_ptx_sim_memcpy_symbol with hostVar 0x0x60e2e0
GPGPU-Sim PTX: gpgpu_ptx_sim_memcpy_symbol: Found PTX symbol w/ hostVar=0x60e2e0
GPGPU-Sim PTX: gpgpu_ptx_sim_memcpy_symbol: copying const memory 200 bytes  to  symbol jds_ptr_int+0 @0x180 ...
GPGPU-Sim PTX: cudaMemcpyToSymbol: symbol = 0x613100
GPGPU-Sim PTX: starting gpgpu_ptx_sim_memcpy_symbol with hostVar 0x0x613100
GPGPU-Sim PTX: gpgpu_ptx_sim_memcpy_symbol: Found PTX symbol w/ hostVar=0x613100
GPGPU-Sim PTX: gpgpu_ptx_sim_memcpy_symbol: copying const memory 18340 bytes  to  symbol sh_zcnt_int+0 @0x5000 ...
GPGPU-Sim: synchronize waiting for inactive GPU simulation
GPGPU-Sim API: Stream Manager State
GPGPU-Sim: detected inactive GPU simulation thread
event update
GPGPU-Sim: synchronize waiting for inactive GPU simulation
GPGPU-Sim API: Stream Manager State
GPGPU-Sim: detected inactive GPU simulation thread
GPGPU-Sim PTX: Setting up arguments for 8 bytes starting at 0x7ffeb42aceb8..
GPGPU-Sim PTX: Setting up arguments for 8 bytes starting at 0x7ffeb42aceb0..
GPGPU-Sim PTX: Setting up arguments for 8 bytes starting at 0x7ffeb42acea8..
GPGPU-Sim PTX: Setting up arguments for 8 bytes starting at 0x7ffeb42acea0..
GPGPU-Sim PTX: Setting up arguments for 8 bytes starting at 0x7ffeb42ace98..
GPGPU-Sim PTX: Setting up arguments for 8 bytes starting at 0x7ffeb42ace90..
GPGPU-Sim PTX: Setting up arguments for 4 bytes starting at 0x7ffeb42acf50..

GPGPU-Sim PTX: cudaLaunch for 0x0x403240 (mode=performance simulation) on stream 0
GPGPU-Sim PTX: finding reconvergence points for '_Z13spmv_jds_nvmgPfPKfPKiS3_S1_S3_i'...
GPGPU-Sim PTX: Finding dominators for '_Z13spmv_jds_nvmgPfPKfPKiS3_S1_S3_i'...
GPGPU-Sim PTX: Finding immediate dominators for '_Z13spmv_jds_nvmgPfPKfPKiS3_S1_S3_i'...
GPGPU-Sim PTX: Finding postdominators for '_Z13spmv_jds_nvmgPfPKfPKiS3_S1_S3_i'...
GPGPU-Sim PTX: Finding immediate postdominators for '_Z13spmv_jds_nvmgPfPKfPKiS3_S1_S3_i'...
GPGPU-Sim PTX: pre-decoding instructions for '_Z13spmv_jds_nvmgPfPKfPKiS3_S1_S3_i'...
GPGPU-Sim PTX: reconvergence points for _Z13spmv_jds_nvmgPfPKfPKiS3_S1_S3_i...
GPGPU-Sim PTX:  1 (potential) branch divergence @  PC=0x18f0 (spmv.1.sm_70.ptx:1066) @%p1 bra BB4_20;
GPGPU-Sim PTX:    immediate post dominator      @  PC=0x1f48 (spmv.1.sm_70.ptx:1315) mov.u32 %r94, %tid.z;
GPGPU-Sim PTX:  2 (potential) branch divergence @  PC=0x19a8 (spmv.1.sm_70.ptx:1094) @%p2 bra BB4_3;
GPGPU-Sim PTX:    immediate post dominator      @  PC=0x1a18 (spmv.1.sm_70.ptx:1115) shr.s32 %r35, %r2, 5;
GPGPU-Sim PTX:  3 (potential) branch divergence @  PC=0x1ab8 (spmv.1.sm_70.ptx:1135) @%p3 bra BB4_19;
GPGPU-Sim PTX:    immediate post dominator      @  PC=0x1f18 (spmv.1.sm_70.ptx:1303) fma.rn.f32 %f39, %f47, %f48, %f45;
GPGPU-Sim PTX:  4 (potential) branch divergence @  PC=0x1b10 (spmv.1.sm_70.ptx:1147) @%p4 bra BB4_5;
GPGPU-Sim PTX:    immediate post dominator      @  PC=0x1f08 (spmv.1.sm_70.ptx:1299) ld.global.f32 %f47, [%rd131];
GPGPU-Sim PTX:  5 (potential) branch divergence @  PC=0x1b48 (spmv.1.sm_70.ptx:1155) @%p5 bra BB4_7;
GPGPU-Sim PTX:    immediate post dominator      @  PC=0x1d48 (spmv.1.sm_70.ptx:1238) setp.lt.u32%p8, %r43, 4;
GPGPU-Sim PTX:  6 (potential) branch divergence @  PC=0x1b60 (spmv.1.sm_70.ptx:1159) @%p6 bra BB4_9;
GPGPU-Sim PTX:    immediate post dominator      @  PC=0x1cb8 (spmv.1.sm_70.ptx:1218) mul.wide.s32 %rd81, %r110, 4;
GPGPU-Sim PTX:  7 (potential) branch divergence @  PC=0x1b68 (spmv.1.sm_70.ptx:1160) bra.uni BB4_10;
GPGPU-Sim PTX:    immediate post dominator      @  PC=0x1bb0 (spmv.1.sm_70.ptx:1177) setp.eq.s32%p7, %r44, 2;
GPGPU-Sim PTX:  8 (potential) branch divergence @  PC=0x1b78 (spmv.1.sm_70.ptx:1164) bra.uni BB4_14;
GPGPU-Sim PTX:    immediate post dominator      @  PC=0x1cb8 (spmv.1.sm_70.ptx:1218) mul.wide.s32 %rd81, %r110, 4;
GPGPU-Sim PTX:  9 (potential) branch divergence @  PC=0x1b90 (spmv.1.sm_70.ptx:1169) bra.uni BB4_18;
GPGPU-Sim PTX:    immediate post dominator      @  PC=0x1f08 (spmv.1.sm_70.ptx:1299) ld.global.f32 %f47, [%rd131];
GPGPU-Sim PTX: 10 (potential) branch divergence @  PC=0x1ba8 (spmv.1.sm_70.ptx:1174) bra.uni BB4_15;
GPGPU-Sim PTX:    immediate post dominator      @  PC=0x1d48 (spmv.1.sm_70.ptx:1238) setp.lt.u32%p8, %r43, 4;
GPGPU-Sim PTX: 11 (potential) branch divergence @  PC=0x1bc0 (spmv.1.sm_70.ptx:1179) @%p7 bra BB4_11;
GPGPU-Sim PTX:    immediate post dominator      @  PC=0x1c40 (spmv.1.sm_70.ptx:1201) mul.wide.u32 %rd72, %r109, 4;
GPGPU-Sim PTX: 12 (potential) branch divergence @  PC=0x1bc8 (spmv.1.sm_70.ptx:1180) bra.uni BB4_12;
GPGPU-Sim PTX:    immediate post dominator      @  PC=0x1be0 (spmv.1.sm_70.ptx:1187) ld.global.f32 %f22, [%rd2];
GPGPU-Sim PTX: 13 (potential) branch divergence @  PC=0x1bd8 (spmv.1.sm_70.ptx:1184) bra.uni BB4_13;
GPGPU-Sim PTX:    immediate post dominator      @  PC=0x1c40 (spmv.1.sm_70.ptx:1201) mul.wide.u32 %rd72, %r109, 4;
GPGPU-Sim PTX: 14 (potential) branch divergence @  PC=0x1d50 (spmv.1.sm_70.ptx:1239) @%p8 bra BB4_18;
GPGPU-Sim PTX:    immediate post dominator      @  PC=0x1f08 (spmv.1.sm_70.ptx:1299) ld.global.f32 %f47, [%rd131];
GPGPU-Sim PTX: 15 (potential) branch divergence @  PC=0x1f00 (spmv.1.sm_70.ptx:1296) @%p9 bra BB4_17;
GPGPU-Sim PTX:    immediate post dominator      @  PC=0x1f08 (spmv.1.sm_70.ptx:1299) ld.global.f32 %f47, [%rd131];
GPGPU-Sim PTX: 16 (potential) branch divergence @  PC=0x1f98 (spmv.1.sm_70.ptx:1327) @%p10 bra BB4_22;
GPGPU-Sim PTX:    immediate post dominator      @  PC=0x2008 (spmv.1.sm_70.ptx:1348) ret;
GPGPU-Sim PTX: ... end of reconvergence points for _Z13spmv_jds_nvmgPfPKfPKiS3_S1_S3_i
GPGPU-Sim PTX: ... done pre-decoding instructions for '_Z13spmv_jds_nvmgPfPKfPKiS3_S1_S3_i'.
GPGPU-Sim PTX: pushing kernel '_Z13spmv_jds_nvmgPfPKfPKiS3_S1_S3_i' to stream 0, gridDim= (765,1,1) blockDim = (192,1,1) 
GPGPU-Sim uArch: Shader 0 bind to kernel 1 '_Z13spmv_jds_nvmgPfPKfPKiS3_S1_S3_i'
GPGPU-Sim uArch: CTA/core = 10, limited by: threads regs
GPGPU-Sim: Reconfigure L1 cache to 128KB
GPGPU-Sim uArch: Shader 1 bind to kernel 1 '_Z13spmv_jds_nvmgPfPKfPKiS3_S1_S3_i'
GPGPU-Sim uArch: Shader 2 bind to kernel 1 '_Z13spmv_jds_nvmgPfPKfPKiS3_S1_S3_i'
GPGPU-Sim uArch: Shader 3 bind to kernel 1 '_Z13spmv_jds_nvmgPfPKfPKiS3_S1_S3_i'
GPGPU-Sim uArch: Shader 4 bind to kernel 1 '_Z13spmv_jds_nvmgPfPKfPKiS3_S1_S3_i'
GPGPU-Sim uArch: Shader 5 bind to kernel 1 '_Z13spmv_jds_nvmgPfPKfPKiS3_S1_S3_i'
GPGPU-Sim uArch: Shader 6 bind to kernel 1 '_Z13spmv_jds_nvmgPfPKfPKiS3_S1_S3_i'
GPGPU-Sim uArch: Shader 7 bind to kernel 1 '_Z13spmv_jds_nvmgPfPKfPKiS3_S1_S3_i'
GPGPU-Sim uArch: Shader 8 bind to kernel 1 '_Z13spmv_jds_nvmgPfPKfPKiS3_S1_S3_i'
GPGPU-Sim uArch: Shader 9 bind to kernel 1 '_Z13spmv_jds_nvmgPfPKfPKiS3_S1_S3_i'
GPGPU-Sim uArch: Shader 10 bind to kernel 1 '_Z13spmv_jds_nvmgPfPKfPKiS3_S1_S3_i'
GPGPU-Sim uArch: Shader 11 bind to kernel 1 '_Z13spmv_jds_nvmgPfPKfPKiS3_S1_S3_i'
GPGPU-Sim uArch: Shader 12 bind to kernel 1 '_Z13spmv_jds_nvmgPfPKfPKiS3_S1_S3_i'
GPGPU-Sim uArch: Shader 13 bind to kernel 1 '_Z13spmv_jds_nvmgPfPKfPKiS3_S1_S3_i'
GPGPU-Sim uArch: Shader 14 bind to kernel 1 '_Z13spmv_jds_nvmgPfPKfPKiS3_S1_S3_i'
GPGPU-Sim uArch: Shader 15 bind to kernel 1 '_Z13spmv_jds_nvmgPfPKfPKiS3_S1_S3_i'
GPGPU-Sim uArch: Shader 16 bind to kernel 1 '_Z13spmv_jds_nvmgPfPKfPKiS3_S1_S3_i'
GPGPU-Sim uArch: Shader 17 bind to kernel 1 '_Z13spmv_jds_nvmgPfPKfPKiS3_S1_S3_i'
GPGPU-Sim uArch: Shader 18 bind to kernel 1 '_Z13spmv_jds_nvmgPfPKfPKiS3_S1_S3_i'
GPGPU-Sim uArch: Shader 19 bind to kernel 1 '_Z13spmv_jds_nvmgPfPKfPKiS3_S1_S3_i'
GPGPU-Sim uArch: Shader 20 bind to kernel 1 '_Z13spmv_jds_nvmgPfPKfPKiS3_S1_S3_i'
GPGPU-Sim uArch: Shader 21 bind to kernel 1 '_Z13spmv_jds_nvmgPfPKfPKiS3_S1_S3_i'
GPGPU-Sim uArch: Shader 22 bind to kernel 1 '_Z13spmv_jds_nvmgPfPKfPKiS3_S1_S3_i'
GPGPU-Sim uArch: Shader 23 bind to kernel 1 '_Z13spmv_jds_nvmgPfPKfPKiS3_S1_S3_i'
GPGPU-Sim uArch: Shader 24 bind to kernel 1 '_Z13spmv_jds_nvmgPfPKfPKiS3_S1_S3_i'
GPGPU-Sim uArch: Shader 25 bind to kernel 1 '_Z13spmv_jds_nvmgPfPKfPKiS3_S1_S3_i'
GPGPU-Sim uArch: Shader 26 bind to kernel 1 '_Z13spmv_jds_nvmgPfPKfPKiS3_S1_S3_i'
GPGPU-Sim uArch: Shader 27 bind to kernel 1 '_Z13spmv_jds_nvmgPfPKfPKiS3_S1_S3_i'
GPGPU-Sim uArch: Shader 28 bind to kernel 1 '_Z13spmv_jds_nvmgPfPKfPKiS3_S1_S3_i'
GPGPU-Sim uArch: Shader 29 bind to kernel 1 '_Z13spmv_jds_nvmgPfPKfPKiS3_S1_S3_i'
GPGPU-Sim uArch: Shader 30 bind to kernel 1 '_Z13spmv_jds_nvmgPfPKfPKiS3_S1_S3_i'
GPGPU-Sim uArch: Shader 31 bind to kernel 1 '_Z13spmv_jds_nvmgPfPKfPKiS3_S1_S3_i'
GPGPU-Sim uArch: Shader 32 bind to kernel 1 '_Z13spmv_jds_nvmgPfPKfPKiS3_S1_S3_i'
GPGPU-Sim uArch: Shader 33 bind to kernel 1 '_Z13spmv_jds_nvmgPfPKfPKiS3_S1_S3_i'
GPGPU-Sim uArch: Shader 34 bind to kernel 1 '_Z13spmv_jds_nvmgPfPKfPKiS3_S1_S3_i'
GPGPU-Sim uArch: Shader 35 bind to kernel 1 '_Z13spmv_jds_nvmgPfPKfPKiS3_S1_S3_i'
GPGPU-Sim uArch: Shader 36 bind to kernel 1 '_Z13spmv_jds_nvmgPfPKfPKiS3_S1_S3_i'
GPGPU-Sim uArch: Shader 37 bind to kernel 1 '_Z13spmv_jds_nvmgPfPKfPKiS3_S1_S3_i'
GPGPU-Sim uArch: Shader 38 bind to kernel 1 '_Z13spmv_jds_nvmgPfPKfPKiS3_S1_S3_i'
GPGPU-Sim uArch: Shader 39 bind to kernel 1 '_Z13spmv_jds_nvmgPfPKfPKiS3_S1_S3_i'
GPGPU-Sim uArch: Shader 40 bind to kernel 1 '_Z13spmv_jds_nvmgPfPKfPKiS3_S1_S3_i'
GPGPU-Sim uArch: Shader 41 bind to kernel 1 '_Z13spmv_jds_nvmgPfPKfPKiS3_S1_S3_i'
GPGPU-Sim uArch: Shader 42 bind to kernel 1 '_Z13spmv_jds_nvmgPfPKfPKiS3_S1_S3_i'
GPGPU-Sim uArch: Shader 43 bind to kernel 1 '_Z13spmv_jds_nvmgPfPKfPKiS3_S1_S3_i'
GPGPU-Sim uArch: Shader 44 bind to kernel 1 '_Z13spmv_jds_nvmgPfPKfPKiS3_S1_S3_i'
GPGPU-Sim uArch: Shader 45 bind to kernel 1 '_Z13spmv_jds_nvmgPfPKfPKiS3_S1_S3_i'
GPGPU-Sim uArch: Shader 46 bind to kernel 1 '_Z13spmv_jds_nvmgPfPKfPKiS3_S1_S3_i'
GPGPU-Sim uArch: Shader 47 bind to kernel 1 '_Z13spmv_jds_nvmgPfPKfPKiS3_S1_S3_i'
GPGPU-Sim uArch: Shader 48 bind to kernel 1 '_Z13spmv_jds_nvmgPfPKfPKiS3_S1_S3_i'
GPGPU-Sim uArch: Shader 49 bind to kernel 1 '_Z13spmv_jds_nvmgPfPKfPKiS3_S1_S3_i'
GPGPU-Sim uArch: Shader 50 bind to kernel 1 '_Z13spmv_jds_nvmgPfPKfPKiS3_S1_S3_i'
GPGPU-Sim uArch: Shader 51 bind to kernel 1 '_Z13spmv_jds_nvmgPfPKfPKiS3_S1_S3_i'
GPGPU-Sim uArch: Shader 52 bind to kernel 1 '_Z13spmv_jds_nvmgPfPKfPKiS3_S1_S3_i'
GPGPU-Sim uArch: Shader 53 bind to kernel 1 '_Z13spmv_jds_nvmgPfPKfPKiS3_S1_S3_i'
GPGPU-Sim uArch: Shader 54 bind to kernel 1 '_Z13spmv_jds_nvmgPfPKfPKiS3_S1_S3_i'
GPGPU-Sim uArch: Shader 55 bind to kernel 1 '_Z13spmv_jds_nvmgPfPKfPKiS3_S1_S3_i'
GPGPU-Sim uArch: Shader 56 bind to kernel 1 '_Z13spmv_jds_nvmgPfPKfPKiS3_S1_S3_i'
GPGPU-Sim uArch: Shader 57 bind to kernel 1 '_Z13spmv_jds_nvmgPfPKfPKiS3_S1_S3_i'
GPGPU-Sim uArch: Shader 58 bind to kernel 1 '_Z13spmv_jds_nvmgPfPKfPKiS3_S1_S3_i'
GPGPU-Sim uArch: Shader 59 bind to kernel 1 '_Z13spmv_jds_nvmgPfPKfPKiS3_S1_S3_i'
GPGPU-Sim uArch: Shader 60 bind to kernel 1 '_Z13spmv_jds_nvmgPfPKfPKiS3_S1_S3_i'
GPGPU-Sim uArch: Shader 61 bind to kernel 1 '_Z13spmv_jds_nvmgPfPKfPKiS3_S1_S3_i'
GPGPU-Sim uArch: Shader 62 bind to kernel 1 '_Z13spmv_jds_nvmgPfPKfPKiS3_S1_S3_i'
GPGPU-Sim uArch: Shader 63 bind to kernel 1 '_Z13spmv_jds_nvmgPfPKfPKiS3_S1_S3_i'
GPGPU-Sim uArch: Shader 64 bind to kernel 1 '_Z13spmv_jds_nvmgPfPKfPKiS3_S1_S3_i'
GPGPU-Sim uArch: Shader 65 bind to kernel 1 '_Z13spmv_jds_nvmgPfPKfPKiS3_S1_S3_i'
GPGPU-Sim uArch: Shader 66 bind to kernel 1 '_Z13spmv_jds_nvmgPfPKfPKiS3_S1_S3_i'
GPGPU-Sim uArch: Shader 67 bind to kernel 1 '_Z13spmv_jds_nvmgPfPKfPKiS3_S1_S3_i'
GPGPU-Sim uArch: Shader 68 bind to kernel 1 '_Z13spmv_jds_nvmgPfPKfPKiS3_S1_S3_i'
GPGPU-Sim uArch: Shader 69 bind to kernel 1 '_Z13spmv_jds_nvmgPfPKfPKiS3_S1_S3_i'
GPGPU-Sim uArch: Shader 70 bind to kernel 1 '_Z13spmv_jds_nvmgPfPKfPKiS3_S1_S3_i'
GPGPU-Sim uArch: Shader 71 bind to kernel 1 '_Z13spmv_jds_nvmgPfPKfPKiS3_S1_S3_i'
GPGPU-Sim uArch: Shader 72 bind to kernel 1 '_Z13spmv_jds_nvmgPfPKfPKiS3_S1_S3_i'
GPGPU-Sim uArch: Shader 73 bind to kernel 1 '_Z13spmv_jds_nvmgPfPKfPKiS3_S1_S3_i'
GPGPU-Sim uArch: Shader 74 bind to kernel 1 '_Z13spmv_jds_nvmgPfPKfPKiS3_S1_S3_i'
GPGPU-Sim uArch: Shader 75 bind to kernel 1 '_Z13spmv_jds_nvmgPfPKfPKiS3_S1_S3_i'
GPGPU-Sim uArch: Shader 76 bind to kernel 1 '_Z13spmv_jds_nvmgPfPKfPKiS3_S1_S3_i'
GPGPU-Sim uArch: Shader 77 bind to kernel 1 '_Z13spmv_jds_nvmgPfPKfPKiS3_S1_S3_i'
GPGPU-Sim uArch: Shader 78 bind to kernel 1 '_Z13spmv_jds_nvmgPfPKfPKiS3_S1_S3_i'
GPGPU-Sim uArch: Shader 79 bind to kernel 1 '_Z13spmv_jds_nvmgPfPKfPKiS3_S1_S3_i'
kernel_name = _Z13spmv_jds_nvmgPfPKfPKiS3_S1_S3_i 
kernel_launch_uid = 1 
gpu_sim_cycle = 38721
gpu_sim_insn = 42268830
gpu_ipc =    1091.6255
gpu_tot_sim_cycle = 38721
gpu_tot_sim_insn = 42268830
gpu_tot_ipc =    1091.6255
gpu_tot_issued_cta = 765
gpu_occupancy = 88.2922% 
gpu_tot_occupancy = 88.2922% 
max_total_param_size = 0
gpu_stall_dramfull = 375619
gpu_stall_icnt2sh    = 0
partiton_level_parallism =      22.9026
partiton_level_parallism_total  =      22.9026
partiton_level_parallism_util =      26.6461
partiton_level_parallism_util_total  =      26.6461
L2_BW  =     819.7835 GB/Sec
L2_BW_total  =     819.7835 GB/Sec
gpu_total_sim_rate=97169
############## bottleneck_stats #############
cycles: core 38721, icnt 38721, l2 38721, dram 29075
gpu_ipc	1091.625
gpu_tot_issued_cta = 765, average cycles = 51
n_dram_writes	 0, n_dram_reads	 0
n_GLOBAL_ACC_R	 673620 
n_LOCAL_ACC_R	 0 
n_CONST_ACC_R	 0 
n_TEXTURE_ACC_R	 0 
n_GLOBAL_ACC_W	 0 
n_LOCAL_ACC_W	 0 
n_L1_WRBK_ACC	 0 
n_L2_WRBK_ACC	 4611 
n_L1_WR_ALLOC_R	 0 
n_L2_WR_ALLOC_R	 0 

n_sm	 80, n_schedulers	 4
scheduler util	0.110	80
L1D data util	1.285	80	1.462	3
L1D tag util	0.434	80	0.509	3
L2 data util	1.160	64	1.173	24
L2 tag util	0.401	64	0.526	11
n_l2_access	 992497
icnt s2m util	0.000	0	0.000	11	flits per packet: -nan
icnt m2s util	0.000	0	0.000	11	flits per packet: -nan
sum=0
n_mem	 32
dram util	0.743	32	0.749	7

latency_l1_hit:	8251880, num_l1_reqs:	412594
L1 hit latency:	20
latency_l2_hit:	57024004, num_l2_reqs:	165132
L2 hit latency:	345
latency_dram:	575937851, num_dram_reqs:	710755
DRAM latency:	810

n_reg	65536, n_smem	98304, n_thread	2048, n_tb	32
reg file	0.938
smem size	0.000
thread slot	0.938
TB slot    	0.312
L1I tag util	0.228	80	0.240	27

n_mem_pipe	1, n_sp_pipe	4, n_sfu_pipe	4
mem pipe util	0.123	80	0.129	18
sp pipe util	0.000	0	0.000	18
sfu pipe util	0.000	0	0.000	18
ldst mem cycle	0.000	0	0.000	18

smem port	0.000	0

n_reg_bank	16
reg port	0.075	16	0.080	2
L1D tag util	0.434	80	0.509	3
L1D fill util	0.272	80	0.306	0
n_l1d_mshr	4096
L1D mshr util	0.048	80
n_l1d_missq	16
L1D missq util	0.018	80
L1D hit rate	0.307
L1D miss rate	0.693
L1D rsfail rate	0.000
L2 tag util	0.401	64	0.526	11
L2 fill util	0.272	64	0.274	15
n_l2_mshr	192
n_l2_missq	32
L2 mshr util	0.667	64	0.778	17
L2 missq util	0.009	64	0.009	55
L2 hit rate	0.167
L2 miss rate	0.720
L2 rsfail rate	0.113

dram activity	0.824	32	0.830	12

load trans eff	0.613
load trans sz	32.000
load_useful_bytes 25714352, load_transaction_bytes 41941248, icnt_m2s_bytes 0
n_gmem_load_insns 249318, n_gmem_load_accesses 1310664
n_smem_access_insn 0, n_smem_accesses 0

tmp_counter/12	0.401

run 0.010, fetch 0.000, sync 0.029, control 0.000, data 0.956, struct 0.004
############ end_bottleneck_stats #############

========= Core cache stats =========
L1I_cache:
	L1I_total_cache_accesses = 0
	L1I_total_cache_misses = 0
	L1I_total_cache_pending_hits = 0
	L1I_total_cache_reservation_fails = 0
L1D_cache:
	L1D_cache_core[0]: Access = 19446, Miss = 12933, Miss_rate = 0.665, Pending_hits = 0, Reservation_fails = 0
	L1D_cache_core[1]: Access = 19487, Miss = 12698, Miss_rate = 0.652, Pending_hits = 0, Reservation_fails = 0
	L1D_cache_core[2]: Access = 19604, Miss = 12481, Miss_rate = 0.637, Pending_hits = 0, Reservation_fails = 0
	L1D_cache_core[3]: Access = 19699, Miss = 12852, Miss_rate = 0.652, Pending_hits = 0, Reservation_fails = 0
	L1D_cache_core[4]: Access = 18393, Miss = 12367, Miss_rate = 0.672, Pending_hits = 0, Reservation_fails = 0
	L1D_cache_core[5]: Access = 18624, Miss = 12375, Miss_rate = 0.664, Pending_hits = 0, Reservation_fails = 0
	L1D_cache_core[6]: Access = 18448, Miss = 12221, Miss_rate = 0.662, Pending_hits = 0, Reservation_fails = 0
	L1D_cache_core[7]: Access = 18250, Miss = 12278, Miss_rate = 0.673, Pending_hits = 0, Reservation_fails = 0
	L1D_cache_core[8]: Access = 18208, Miss = 12400, Miss_rate = 0.681, Pending_hits = 0, Reservation_fails = 0
	L1D_cache_core[9]: Access = 18408, Miss = 12421, Miss_rate = 0.675, Pending_hits = 0, Reservation_fails = 0
	L1D_cache_core[10]: Access = 18468, Miss = 12406, Miss_rate = 0.672, Pending_hits = 0, Reservation_fails = 0
	L1D_cache_core[11]: Access = 18332, Miss = 12353, Miss_rate = 0.674, Pending_hits = 0, Reservation_fails = 0
	L1D_cache_core[12]: Access = 18820, Miss = 12688, Miss_rate = 0.674, Pending_hits = 0, Reservation_fails = 0
	L1D_cache_core[13]: Access = 19274, Miss = 12921, Miss_rate = 0.670, Pending_hits = 0, Reservation_fails = 0
	L1D_cache_core[14]: Access = 18629, Miss = 12434, Miss_rate = 0.667, Pending_hits = 0, Reservation_fails = 0
	L1D_cache_core[15]: Access = 18107, Miss = 12110, Miss_rate = 0.669, Pending_hits = 0, Reservation_fails = 0
	L1D_cache_core[16]: Access = 17754, Miss = 11968, Miss_rate = 0.674, Pending_hits = 0, Reservation_fails = 0
	L1D_cache_core[17]: Access = 17854, Miss = 12011, Miss_rate = 0.673, Pending_hits = 0, Reservation_fails = 0
	L1D_cache_core[18]: Access = 17971, Miss = 12133, Miss_rate = 0.675, Pending_hits = 0, Reservation_fails = 0
	L1D_cache_core[19]: Access = 17924, Miss = 12057, Miss_rate = 0.673, Pending_hits = 0, Reservation_fails = 0
	L1D_cache_core[20]: Access = 17915, Miss = 12137, Miss_rate = 0.677, Pending_hits = 0, Reservation_fails = 0
	L1D_cache_core[21]: Access = 17830, Miss = 12128, Miss_rate = 0.680, Pending_hits = 0, Reservation_fails = 0
	L1D_cache_core[22]: Access = 17492, Miss = 11978, Miss_rate = 0.685, Pending_hits = 0, Reservation_fails = 0
	L1D_cache_core[23]: Access = 16843, Miss = 11787, Miss_rate = 0.700, Pending_hits = 0, Reservation_fails = 0
	L1D_cache_core[24]: Access = 16948, Miss = 11773, Miss_rate = 0.695, Pending_hits = 0, Reservation_fails = 0
	L1D_cache_core[25]: Access = 17129, Miss = 11884, Miss_rate = 0.694, Pending_hits = 0, Reservation_fails = 0
	L1D_cache_core[26]: Access = 17066, Miss = 11809, Miss_rate = 0.692, Pending_hits = 0, Reservation_fails = 0
	L1D_cache_core[27]: Access = 16990, Miss = 11838, Miss_rate = 0.697, Pending_hits = 0, Reservation_fails = 0
	L1D_cache_core[28]: Access = 16928, Miss = 11805, Miss_rate = 0.697, Pending_hits = 0, Reservation_fails = 0
	L1D_cache_core[29]: Access = 17038, Miss = 11929, Miss_rate = 0.700, Pending_hits = 0, Reservation_fails = 0
	L1D_cache_core[30]: Access = 16917, Miss = 11852, Miss_rate = 0.701, Pending_hits = 0, Reservation_fails = 0
	L1D_cache_core[31]: Access = 16997, Miss = 11831, Miss_rate = 0.696, Pending_hits = 0, Reservation_fails = 0
	L1D_cache_core[32]: Access = 16920, Miss = 11893, Miss_rate = 0.703, Pending_hits = 0, Reservation_fails = 0
	L1D_cache_core[33]: Access = 16862, Miss = 12330, Miss_rate = 0.731, Pending_hits = 0, Reservation_fails = 0
	L1D_cache_core[34]: Access = 16895, Miss = 12484, Miss_rate = 0.739, Pending_hits = 0, Reservation_fails = 0
	L1D_cache_core[35]: Access = 17038, Miss = 12549, Miss_rate = 0.737, Pending_hits = 0, Reservation_fails = 0
	L1D_cache_core[36]: Access = 16623, Miss = 12447, Miss_rate = 0.749, Pending_hits = 0, Reservation_fails = 0
	L1D_cache_core[37]: Access = 16843, Miss = 12294, Miss_rate = 0.730, Pending_hits = 0, Reservation_fails = 0
	L1D_cache_core[38]: Access = 16895, Miss = 12102, Miss_rate = 0.716, Pending_hits = 0, Reservation_fails = 0
	L1D_cache_core[39]: Access = 16849, Miss = 12225, Miss_rate = 0.726, Pending_hits = 0, Reservation_fails = 0
	L1D_cache_core[40]: Access = 16783, Miss = 12104, Miss_rate = 0.721, Pending_hits = 0, Reservation_fails = 0
	L1D_cache_core[41]: Access = 16840, Miss = 12490, Miss_rate = 0.742, Pending_hits = 0, Reservation_fails = 0
	L1D_cache_core[42]: Access = 16882, Miss = 12361, Miss_rate = 0.732, Pending_hits = 0, Reservation_fails = 0
	L1D_cache_core[43]: Access = 16678, Miss = 12062, Miss_rate = 0.723, Pending_hits = 0, Reservation_fails = 0
	L1D_cache_core[44]: Access = 15733, Miss = 11423, Miss_rate = 0.726, Pending_hits = 0, Reservation_fails = 0
	L1D_cache_core[45]: Access = 15874, Miss = 11119, Miss_rate = 0.700, Pending_hits = 0, Reservation_fails = 0
	L1D_cache_core[46]: Access = 15815, Miss = 11009, Miss_rate = 0.696, Pending_hits = 0, Reservation_fails = 0
	L1D_cache_core[47]: Access = 15642, Miss = 10821, Miss_rate = 0.692, Pending_hits = 0, Reservation_fails = 0
	L1D_cache_core[48]: Access = 15785, Miss = 10795, Miss_rate = 0.684, Pending_hits = 0, Reservation_fails = 0
	L1D_cache_core[49]: Access = 15623, Miss = 10792, Miss_rate = 0.691, Pending_hits = 0, Reservation_fails = 0
	L1D_cache_core[50]: Access = 15830, Miss = 10907, Miss_rate = 0.689, Pending_hits = 0, Reservation_fails = 0
	L1D_cache_core[51]: Access = 15669, Miss = 10812, Miss_rate = 0.690, Pending_hits = 0, Reservation_fails = 0
	L1D_cache_core[52]: Access = 15651, Miss = 10828, Miss_rate = 0.692, Pending_hits = 0, Reservation_fails = 0
	L1D_cache_core[53]: Access = 15558, Miss = 10784, Miss_rate = 0.693, Pending_hits = 0, Reservation_fails = 0
	L1D_cache_core[54]: Access = 15486, Miss = 10752, Miss_rate = 0.694, Pending_hits = 0, Reservation_fails = 0
	L1D_cache_core[55]: Access = 15406, Miss = 10885, Miss_rate = 0.707, Pending_hits = 0, Reservation_fails = 0
	L1D_cache_core[56]: Access = 15589, Miss = 10877, Miss_rate = 0.698, Pending_hits = 0, Reservation_fails = 0
	L1D_cache_core[57]: Access = 15472, Miss = 10812, Miss_rate = 0.699, Pending_hits = 0, Reservation_fails = 0
	L1D_cache_core[58]: Access = 15611, Miss = 10762, Miss_rate = 0.689, Pending_hits = 0, Reservation_fails = 0
	L1D_cache_core[59]: Access = 15468, Miss = 10650, Miss_rate = 0.689, Pending_hits = 0, Reservation_fails = 0
	L1D_cache_core[60]: Access = 15788, Miss = 11030, Miss_rate = 0.699, Pending_hits = 0, Reservation_fails = 0
	L1D_cache_core[61]: Access = 15671, Miss = 10864, Miss_rate = 0.693, Pending_hits = 0, Reservation_fails = 0
	L1D_cache_core[62]: Access = 15589, Miss = 11082, Miss_rate = 0.711, Pending_hits = 0, Reservation_fails = 0
	L1D_cache_core[63]: Access = 15713, Miss = 10768, Miss_rate = 0.685, Pending_hits = 0, Reservation_fails = 0
	L1D_cache_core[64]: Access = 15577, Miss = 10866, Miss_rate = 0.698, Pending_hits = 0, Reservation_fails = 0
	L1D_cache_core[65]: Access = 15725, Miss = 10882, Miss_rate = 0.692, Pending_hits = 0, Reservation_fails = 0
	L1D_cache_core[66]: Access = 15630, Miss = 10921, Miss_rate = 0.699, Pending_hits = 0, Reservation_fails = 0
	L1D_cache_core[67]: Access = 15520, Miss = 10850, Miss_rate = 0.699, Pending_hits = 0, Reservation_fails = 0
	L1D_cache_core[68]: Access = 15679, Miss = 10936, Miss_rate = 0.697, Pending_hits = 0, Reservation_fails = 0
	L1D_cache_core[69]: Access = 15551, Miss = 10804, Miss_rate = 0.695, Pending_hits = 0, Reservation_fails = 0
	L1D_cache_core[70]: Access = 15701, Miss = 10929, Miss_rate = 0.696, Pending_hits = 0, Reservation_fails = 0
	L1D_cache_core[71]: Access = 15591, Miss = 10942, Miss_rate = 0.702, Pending_hits = 0, Reservation_fails = 0
	L1D_cache_core[72]: Access = 15702, Miss = 10917, Miss_rate = 0.695, Pending_hits = 0, Reservation_fails = 0
	L1D_cache_core[73]: Access = 15681, Miss = 10835, Miss_rate = 0.691, Pending_hits = 0, Reservation_fails = 0
	L1D_cache_core[74]: Access = 15582, Miss = 10873, Miss_rate = 0.698, Pending_hits = 0, Reservation_fails = 0
	L1D_cache_core[75]: Access = 15556, Miss = 11209, Miss_rate = 0.721, Pending_hits = 0, Reservation_fails = 0
	L1D_cache_core[76]: Access = 15526, Miss = 10803, Miss_rate = 0.696, Pending_hits = 0, Reservation_fails = 0
	L1D_cache_core[77]: Access = 15670, Miss = 10990, Miss_rate = 0.701, Pending_hits = 0, Reservation_fails = 0
	L1D_cache_core[78]: Access = 15667, Miss = 10784, Miss_rate = 0.688, Pending_hits = 0, Reservation_fails = 0
	L1D_cache_core[79]: Access = 15709, Miss = 10835, Miss_rate = 0.690, Pending_hits = 0, Reservation_fails = 0
	L1D_total_cache_accesses = 1342941
	L1D_total_cache_misses = 930347
	L1D_total_cache_miss_rate = 0.6928
	L1D_total_cache_pending_hits = 0
	L1D_total_cache_reservation_fails = 0
	L1D_cache_data_port_util = 0.153
	L1D_cache_fill_port_util = 0.312
L1C_cache:
	L1C_total_cache_accesses = 0
	L1C_total_cache_misses = 0
	L1C_total_cache_pending_hits = 0
	L1C_total_cache_reservation_fails = 0
L1T_cache:
	L1T_total_cache_accesses = 0
	L1T_total_cache_misses = 0
	L1T_total_cache_pending_hits = 0
	L1T_total_cache_reservation_fails = 0

Total_core_cache_stats:
	Total_core_cache_stats_breakdown[GLOBAL_ACC_R][HIT] = 412594
	Total_core_cache_stats_breakdown[GLOBAL_ACC_R][HIT_RESERVED] = 0
	Total_core_cache_stats_breakdown[GLOBAL_ACC_R][MISS] = 795829
	Total_core_cache_stats_breakdown[GLOBAL_ACC_R][RESERVATION_FAIL] = 0
	Total_core_cache_stats_breakdown[GLOBAL_ACC_R][SECTOR_MISS] = 100610
	Total_core_cache_stats_breakdown[LOCAL_ACC_R][HIT] = 0
	Total_core_cache_stats_breakdown[LOCAL_ACC_R][HIT_RESERVED] = 0
	Total_core_cache_stats_breakdown[LOCAL_ACC_R][MISS] = 0
	Total_core_cache_stats_breakdown[LOCAL_ACC_R][RESERVATION_FAIL] = 0
	Total_core_cache_stats_breakdown[LOCAL_ACC_R][SECTOR_MISS] = 0
	Total_core_cache_stats_breakdown[CONST_ACC_R][HIT] = 0
	Total_core_cache_stats_breakdown[CONST_ACC_R][HIT_RESERVED] = 0
	Total_core_cache_stats_breakdown[CONST_ACC_R][MISS] = 0
	Total_core_cache_stats_breakdown[CONST_ACC_R][RESERVATION_FAIL] = 0
	Total_core_cache_stats_breakdown[CONST_ACC_R][SECTOR_MISS] = 0
	Total_core_cache_stats_breakdown[TEXTURE_ACC_R][HIT] = 0
	Total_core_cache_stats_breakdown[TEXTURE_ACC_R][HIT_RESERVED] = 0
	Total_core_cache_stats_breakdown[TEXTURE_ACC_R][MISS] = 0
	Total_core_cache_stats_breakdown[TEXTURE_ACC_R][RESERVATION_FAIL] = 0
	Total_core_cache_stats_breakdown[TEXTURE_ACC_R][SECTOR_MISS] = 0
	Total_core_cache_stats_breakdown[GLOBAL_ACC_W][HIT] = 0
	Total_core_cache_stats_breakdown[GLOBAL_ACC_W][HIT_RESERVED] = 0
	Total_core_cache_stats_breakdown[GLOBAL_ACC_W][MISS] = 33908
	Total_core_cache_stats_breakdown[GLOBAL_ACC_W][RESERVATION_FAIL] = 0
	Total_core_cache_stats_breakdown[GLOBAL_ACC_W][SECTOR_MISS] = 0
	Total_core_cache_stats_breakdown[LOCAL_ACC_W][HIT] = 0
	Total_core_cache_stats_breakdown[LOCAL_ACC_W][HIT_RESERVED] = 0
	Total_core_cache_stats_breakdown[LOCAL_ACC_W][MISS] = 0
	Total_core_cache_stats_breakdown[LOCAL_ACC_W][RESERVATION_FAIL] = 0
	Total_core_cache_stats_breakdown[LOCAL_ACC_W][SECTOR_MISS] = 0
	Total_core_cache_stats_breakdown[L1_WRBK_ACC][HIT] = 0
	Total_core_cache_stats_breakdown[L1_WRBK_ACC][HIT_RESERVED] = 0
	Total_core_cache_stats_breakdown[L1_WRBK_ACC][MISS] = 0
	Total_core_cache_stats_breakdown[L1_WRBK_ACC][RESERVATION_FAIL] = 0
	Total_core_cache_stats_breakdown[L1_WRBK_ACC][SECTOR_MISS] = 0
	Total_core_cache_stats_breakdown[L2_WRBK_ACC][HIT] = 0
	Total_core_cache_stats_breakdown[L2_WRBK_ACC][HIT_RESERVED] = 0
	Total_core_cache_stats_breakdown[L2_WRBK_ACC][MISS] = 0
	Total_core_cache_stats_breakdown[L2_WRBK_ACC][RESERVATION_FAIL] = 0
	Total_core_cache_stats_breakdown[L2_WRBK_ACC][SECTOR_MISS] = 0
	Total_core_cache_stats_breakdown[INST_ACC_R][HIT] = 0
	Total_core_cache_stats_breakdown[INST_ACC_R][HIT_RESERVED] = 0
	Total_core_cache_stats_breakdown[INST_ACC_R][MISS] = 0
	Total_core_cache_stats_breakdown[INST_ACC_R][RESERVATION_FAIL] = 0
	Total_core_cache_stats_breakdown[INST_ACC_R][SECTOR_MISS] = 0
	Total_core_cache_stats_breakdown[L1_WR_ALLOC_R][HIT] = 0
	Total_core_cache_stats_breakdown[L1_WR_ALLOC_R][HIT_RESERVED] = 0
	Total_core_cache_stats_breakdown[L1_WR_ALLOC_R][MISS] = 0
	Total_core_cache_stats_breakdown[L1_WR_ALLOC_R][RESERVATION_FAIL] = 0
	Total_core_cache_stats_breakdown[L1_WR_ALLOC_R][SECTOR_MISS] = 0
	Total_core_cache_stats_breakdown[L2_WR_ALLOC_R][HIT] = 0
	Total_core_cache_stats_breakdown[L2_WR_ALLOC_R][HIT_RESERVED] = 0
	Total_core_cache_stats_breakdown[L2_WR_ALLOC_R][MISS] = 0
	Total_core_cache_stats_breakdown[L2_WR_ALLOC_R][RESERVATION_FAIL] = 0
	Total_core_cache_stats_breakdown[L2_WR_ALLOC_R][SECTOR_MISS] = 0
	Total_core_cache_stats_breakdown[GLOBAL_ACC_R][TOTAL_ACCESS] = 1309033
	Total_core_cache_stats_breakdown[GLOBAL_ACC_W][TOTAL_ACCESS] = 33908

Total_core_cache_fail_stats:
Shader 0 warp_id issue ditsribution:
warp_id:
0, 1, 2, 3, 4, 5, 6, 7, 8, 9, 10, 11, 12, 13, 14, 15, 16, 17, 18, 19, 20, 21, 22, 23, 24, 25, 26, 27, 28, 29, 30, 31, 32, 33, 34, 35, 36, 37, 38, 39, 40, 41, 42, 43, 44, 45, 46, 47, 48, 49, 50, 51, 52, 53, 54, 55, 56, 57, 58, 59, 
distro:
313, 300, 300, 307, 289, 296, 313, 307, 307, 296, 296, 289, 309, 300, 296, 296, 289, 296, 313, 300, 307, 300, 300, 307, 298, 300, 300, 307, 300, 300, 298, 300, 285, 296, 296, 300, 314, 288, 288, 288, 288, 288, 314, 288, 288, 288, 288, 288, 314, 288, 288, 288, 288, 288, 314, 288, 288, 288, 288, 288, 
gpgpu_n_tot_thrd_icount = 43661760
gpgpu_n_tot_w_icount = 1364430
gpgpu_n_stall_shd_mem = 1086980
gpgpu_n_mem_read_local = 0
gpgpu_n_mem_write_local = 0
gpgpu_n_mem_read_global = 858102
gpgpu_n_mem_write_global = 33907
gpgpu_n_mem_texture = 0
gpgpu_n_mem_const = 0
gpgpu_n_load_insn  = 7975070
gpgpu_n_store_insn = 212288
gpgpu_n_shmem_insn = 0
gpgpu_n_sstarr_insn = 0
gpgpu_n_tex_insn = 0
gpgpu_n_const_mem_insn = 2768906
gpgpu_n_param_mem_insn = 881280
gpgpu_n_shmem_bkconflict = 0
gpgpu_n_cache_bkconflict = 0
gpgpu_n_intrawarp_mshr_merge = 0
gpgpu_n_cmem_portconflict = 0
gpgpu_stall_shd_mem[c_mem][resource_stall] = 0
gpgpu_stall_shd_mem[s_mem][bk_conf] = 0
gpgpu_stall_shd_mem[gl_mem][resource_stall] = 1086980
gpgpu_stall_shd_mem[gl_mem][coal_stall] = 0
gpgpu_stall_shd_mem[gl_mem][data_port_stall] = 0
gpu_reg_bank_conflict_stalls = 0
Warp Occupancy Distribution:
Stall:150504	W0_Idle:400	W0_Scoreboard:9271662	W1:13902	W2:0	W3:0	W4:0	W5:0	W6:0	W7:0	W8:0	W9:0	W10:0	W11:0	W12:0	W13:0	W14:0	W15:0	W16:0	W17:0	W18:0	W19:0	W20:0	W21:0	W22:0	W23:0	W24:0	W25:0	W26:0	W27:0	W28:0	W29:0	W30:0	W31:0	W32:1353932
single_issue_nums: WS0:350909	WS1:344489	WS2:339533	WS3:332903	
dual_issue_nums: WS0:0	WS1:0	WS2:0	WS3:0	
traffic_breakdown_coretomem[GLOBAL_ACC_R] = 6864816 {8:858102,}
traffic_breakdown_coretomem[GLOBAL_ACC_W] = 1356280 {40:33907,}
traffic_breakdown_memtocore[GLOBAL_ACC_R] = 33686760 {40:842169,}
traffic_breakdown_memtocore[GLOBAL_ACC_W] = 270384 {8:33798,}
maxmflatency = 4193 
max_icnt2mem_latency = 1204 
maxmrqlatency = 2045 
max_icnt2sh_latency = 283 
averagemflatency = 724 
avg_icnt2mem_latency = 124 
avg_mrq_latency = 65 
avg_icnt2sh_latency = 9 
mrq_lat_table:46684 	43910 	48005 	70365 	83377 	140565 	140879 	84683 	17379 	1756 	370 	0 	0 	0 	0 	0 	0 	0 	0 	0 	0 	0 	0 	0 	0 	0 	0 	0 	0 	0 	0 	0 	
dq_lat_table:0 	0 	0 	0 	0 	0 	0 	0 	0 	0 	0 	0 	0 	0 	0 	0 	0 	0 	0 	0 	0 	0 	0 	0 	0 	0 	0 	0 	0 	0 	0 	0 	
mf_lat_table:0 	0 	0 	0 	0 	0 	0 	81601 	191288 	453934 	140249 	8859 	3 	0 	0 	0 	0 	0 	0 	0 	0 	0 	0 	0 	0 	0 	0 	0 	0 	0 	0 	0 	
icnt2mem_lat_table:0 	0 	0 	0 	434153 	110300 	75111 	123322 	109021 	34303 	600 	0 	0 	0 	0 	0 	0 	0 	0 	0 	0 	0 	0 	0 	
icnt2sh_lat_table:0 	632648 	105298 	46054 	30200 	24243 	24584 	12867 	40 	0 	0 	0 	0 	0 	0 	0 	0 	0 	0 	0 	0 	0 	0 	0 	
mf_lat_pw_table:0 	0 	0 	0 	0 	0 	0 	1 	2 	52 	11 	0 	0 	0 	0 	0 	0 	0 	0 	0 	0 	0 	0 	0 	0 	0 	0 	0 	0 	0 	0 	0 	
maximum concurrent accesses to same row:
dram[0]:        64        64        64        64        64        64        64        64        64        64        64        64        64        64        64        64 
dram[1]:        64        64        64        64        64        64        64        64        64        64        64        64        64        64        64        64 
dram[2]:        64        64        64        64        64        64        64        64        60        64        64        64        64        64        64        64 
dram[3]:        64        64        64        64        64        64        64        64        64        64        64        64        64        64        64        64 
dram[4]:        64        64        64        64        64        64        64        60        64        64        64        64        64        64        64        64 
dram[5]:        64        64        64        64        64        64        64        64        64        64        64        60        64        64        64        64 
dram[6]:        64        64        64        64        64        64        64        64        64        64        64        64        64        64        64        64 
dram[7]:        64        64        64        64        64        64        64        64        64        64        64        64        64        64        64        64 
dram[8]:        64        64        64        64        64        64        64        64        64        64        64        64        64        64        64        64 
dram[9]:        64        64        64        64        64        64        64        64        64        64        64        64        64        64        64        64 
dram[10]:        64        64        64        64        64        64        64        64        60        64        64        60        60        64        64        64 
dram[11]:        64        64        64        64        64        64        64        64        60        64        64        56        64        64        64        64 
dram[12]:        64        64        64        64        64        64        64        64        64        64        64        60        64        60        64        64 
dram[13]:        64        64        64        64        64        64        64        64        64        64        64        64        64        64        64        64 
dram[14]:        64        64        64        64        64        64        64        64        64        60        64        64        60        64        64        64 
dram[15]:        64        64        64        64        64        64        64        64        64        64        64        64        64        64        64        64 
dram[16]:        64        64        64        64        64        64        64        64        64        64        64        64        64        64        64        64 
dram[17]:        64        64        64        64        64        64        64        64        64        64        64        60        64        64        64        64 
dram[18]:        64        64        64        64        64        64        64        64        60        60        60        64        64        64        64        64 
dram[19]:        64        64        64        64        64        64        64        64        64        64        64        64        64        64        64        64 
dram[20]:        64        64        64        64        64        64        60        64        64        64        64        64        64        64        64        64 
dram[21]:        64        64        64        64        64        64        64        64        64        64        64        64        64        64        64        64 
dram[22]:        64        64        64        64        64        64        64        64        64        64        64        64        64        64        64        64 
dram[23]:        64        64        64        64        64        64        64        64        64        64        64        64        64        64        64        64 
dram[24]:        64        64        64        64        64        64        64        64        64        64        64        64        64        64        64        64 
dram[25]:        64        64        64        64        64        64        64        64        64        64        64        64        64        64        64        64 
dram[26]:        64        64        64        64        64        64        64        64        64        64        64        60        64        64        64        64 
dram[27]:        64        64        64        64        64        64        64        64        64        64        64        64        64        64        64        64 
dram[28]:        64        64        64        64        64        64        64        64        64        64        60        64        64        64        64        64 
dram[29]:        64        64        64        64        64        64        64        64        64        60        64        60        64        60        64        64 
dram[30]:        64        64        64        64        64        64        64        64        64        56        56        64        64        64        64        64 
dram[31]:        64        64        64        64        64        64        64        64        64        64        64        60        64        64        64        64 
maximum service time to same row:
dram[0]:      6232      6278      6426      6368      6561      6625      6702      6689      7919      8062      8545      8456      8746      8670      6171      6175 
dram[1]:      6253      6176      6341      6390      6542      6610      6715      6653      7675      8087      8528      8235      8505      8742      6180      6189 
dram[2]:      6245      6171      6313      6409      6531      6617      6701      6638      7663      8147      8477      8312      8569      8802      6196      6160 
dram[3]:      6249      6215      6340      6384      6638      6535      6782      6683      7769      7807      8078      8268      8557      8779      6181      6183 
dram[4]:      6240      6208      6341      6444      6490      6538      6767      6755      8012      7766      8143      8211      8761      8830      6195      6173 
dram[5]:      6196      6234      6321      6476      6500      6581      6786      6770      7905      7867      7919      8227      8658      8887      6171      6168 
dram[6]:      6185      6230      6337      6488      6571      6585      6779      6781      7966      8094      8490      8268      8562      8772      6164      6177 
dram[7]:      6180      6252      6314      6489      6605      6599      6759      6802      8115      8060      8449      8562      8847      8874      6196      6172 
dram[8]:      6205      6297      6317      6450      6617      6583      6766      6792      7922      8076      8514      8673      8961      9003      6172      6164 
dram[9]:      6211      6284      6345      6456      6583      6542      6777      6758      8172      7679      8656      8590      9023      8957      6159      6180 
dram[10]:      6207      6289      6282      6458      6583      6549      6795      6735      8104      7681      8626      8376      8761      9066      6188      6152 
dram[11]:      6205      6312      6280      6384      6579      6559      6835      6646      8152      8227      8469      8489      8805      8923      6165      6147 
dram[12]:      6204      6298      6322      6365      6630      6585      6823      6591      8188      8225      8415      8416      8750      8911      6160      6175 
dram[13]:      6192      6346      6341      6356      6610      6615      6792      6605      7849      8225      8412      8558      8620      8839      6152      6155 
dram[14]:      6219      6337      6362      6372      6538      6561      6731      6626      7917      8163      8452      8483      8713      8841      6165      6144 
dram[15]:      6265      6345      6432      6369      6605      6500      6713      6671      7921      7967      8307      8333      8642      8521      6168      6167 
dram[16]:      6282      6302      6294      6412      6559      6497      6729      6646      7833      7843      8300      8336      8676      8530      6173      6164 
dram[17]:      6228      6265      6280      6397      6529      6573      6761      6677      8014      7885      8437      8485      8742      8540      6195      6160 
dram[18]:      6197      6249      6357      6358      6526      6511      6778      6677      8026      7874      8461      8617      8834      8791      6172      6173 
dram[19]:      6193      6226      6362      6404      6598      6472      6758      6730      8046      7743      8459      8397      8854      8569      6220      6151 
dram[20]:      6213      6272      6318      6442      6506      6571      6723      6771      8050      7753      8364      8357      8710      8624      6212      6144 
dram[21]:      6200      6268      6401      6422      6550      6534      6722      6706      8123      7894      8309      8476      8760      8676      6183      6155 
dram[22]:      6199      6266      6440      6400      6583      6571      6738      6739      7878      7994      8439      8417      8644      8761      6177      6172 
dram[23]:      6230      6301      6474      6476      6570      6615      6767      6816      7805      8019      8533      8320      8677      8773      6168      6197 
dram[24]:      6204      6296      6445      6430      6553      6599      6766      6795      7814      7983      8629      8393      8750      8802      6163      6156 
dram[25]:      6189      6338      6441      6454      6623      6673      6783      6827      7905      8016      8524      8441      8717      9215      6157      6147 
dram[26]:      6226      6285      6480      6424      6586      6697      6763      6850      8122      7943      8517      8384      8742      8946      6168      6180 
dram[27]:      6188      6284      6438      6398      6523      6635      6657      6743      8191      7863      8299      8309      8745      8630      6164      6176 
dram[28]:      6179      6298      6442      6388      6630      6595      6722      6678      8072      7952      8316      8534      8737      8598      6160      6176 
dram[29]:      6216      6309      6413      6436      6637      6589      6725      6705      8357      7827      8359      8749      8977      8548      6173      6200 
dram[30]:      6233      6312      6341      6428      6599      6558      6686      6721      8296      7707      8395      8777      9056      8566      6171      6176 
dram[31]:      6238      6257      6365      6409      6581      6539      6670      6707      8136      7718      8340      8514      8823      8680      6159      6160 
average row accesses per activate:
dram[0]: 22.354839 17.871796 15.516483 20.521740 18.486486 16.839506 15.321839 16.000000 15.878049 15.337210 16.526316 16.959999 16.052631 21.684210 17.680555 25.700001 
dram[1]: 18.320000 17.820513 18.840000 16.658823 15.770115 17.461538 14.468085 15.272727 14.505618 15.152941 16.810810 17.315069 21.350878 21.614035 20.516129 22.910715 
dram[2]: 16.352942 18.236841 15.954545 15.954545 16.333334 14.103093 14.255320 14.052083 12.878788 13.171718 15.848102 16.906666 16.810810 19.187500 22.241379 21.266666 
dram[3]: 18.675676 15.488889 15.910112 13.843137 17.148148 13.898990 15.505747 13.316832 13.562500 17.440001 17.802816 17.666666 18.909090 19.746031 23.629629 19.636364 
dram[4]: 16.650602 20.086956 18.631578 18.441559 17.350000 18.648649 16.860760 14.166667 15.022988 16.111111 18.114286 17.438356 19.218750 22.000000 25.959183 20.187500 
dram[5]: 13.456310 17.375000 15.775281 18.578947 16.790123 21.437500 13.814433 16.536585 14.704545 14.988505 14.620689 18.485294 17.371429 30.243902 19.875000 21.627119 
dram[6]: 18.184210 17.424999 16.325581 21.723078 15.586206 16.035294 13.875000 15.155556 14.466666 16.405064 18.434782 18.925373 19.285715 19.015385 25.440001 20.428572 
dram[7]: 19.577465 19.263889 15.225806 20.228571 15.066667 18.958904 17.920000 16.202381 16.961039 16.935064 19.212122 19.875000 21.491526 25.360001 27.166666 24.846153 
dram[8]: 18.729731 18.250000 16.833334 19.666666 17.870131 17.164557 14.284210 14.366667 14.897727 18.428572 19.812500 20.590164 18.641790 22.740740 27.319149 24.538462 
dram[9]: 19.408451 19.250000 18.153847 19.452055 18.904110 17.692308 14.125000 12.961538 15.357142 15.719512 18.376812 21.724138 18.424242 19.062500 20.983606 21.114754 
dram[10]: 18.480000 17.531645 15.955056 16.952381 13.898990 16.154762 15.415730 14.276596 13.381443 13.934783 20.516129 15.650000 17.797102 13.688889 23.703703 19.723078 
dram[11]: 17.111111 17.350000 20.228571 19.189190 16.939024 15.460674 12.914286 16.337349 13.191919 14.086957 17.802816 13.389474 17.739130 15.555555 25.959183 18.309858 
dram[12]: 15.400000 18.770269 16.511627 22.187500 16.476191 17.000000 13.465346 14.977777 13.893617 14.461538 18.112677 16.272728 17.126760 15.961538 22.456141 18.571428 
dram[13]: 16.650602 16.523809 19.189190 14.343434 15.727273 17.920000 14.382978 14.637362 13.050505 14.120879 19.952381 16.693333 21.333334 16.000000 20.000000 19.044777 
dram[14]: 15.840909 19.657143 14.750000 14.947369 15.488636 17.215189 12.716981 12.970874 11.380531 12.767676 14.517241 14.764706 14.891566 17.388889 22.016949 19.815384 
dram[15]: 17.544304 21.353846 18.205128 18.933332 18.000000 16.682926 15.155556 14.451612 14.977012 15.518072 17.135136 16.639999 21.084745 19.234375 22.482759 26.708334 
dram[16]: 20.686567 20.716417 20.521740 18.826666 17.487179 18.157894 17.842106 15.318182 14.965517 20.698412 17.444445 17.802816 19.187500 21.754387 21.200001 25.840000 
dram[17]: 18.986301 20.969696 17.134146 18.389610 16.142857 15.674418 13.128713 15.674418 13.350515 14.850574 16.702703 16.639999 18.117647 19.698412 26.645834 25.600000 
dram[18]: 17.769230 19.828571 17.822784 16.511627 16.481928 16.839506 13.254902 12.647619 12.601942 13.659575 15.650000 16.586666 20.131147 20.524590 17.013334 22.807018 
dram[19]: 18.783783 21.353846 18.736841 17.974684 15.862069 20.294117 14.260417 16.487804 14.260870 16.350000 18.909090 19.106060 21.859650 22.763636 23.000000 24.226416 
dram[20]: 20.500000 20.716417 18.102564 18.736841 21.968254 16.987654 13.254902 15.858824 14.942529 15.987655 16.307692 17.369864 15.696202 25.120001 23.071428 23.345455 
dram[21]: 18.236841 17.974026 18.102564 20.579710 22.360655 22.622952 14.648352 15.929412 15.614458 17.266666 15.825000 21.586206 16.876713 25.872341 21.400000 27.234043 
dram[22]: 20.382353 21.353846 17.268293 18.153847 17.894737 17.947369 17.454546 16.142857 16.062500 16.100000 16.473684 19.138462 23.245283 21.875000 23.272728 34.594593 
dram[23]: 22.000000 20.352942 18.205128 18.153847 20.057972 18.594595 15.067416 17.684210 16.506329 18.140844 18.588236 22.456141 16.986301 24.799999 32.820515 23.981482 
dram[24]: 21.841270 23.066668 17.750000 18.986666 19.714285 17.794872 15.164835 14.869565 17.722221 16.615385 23.509434 20.253969 22.327272 27.377777 18.823530 29.953489 
dram[25]: 23.758621 18.025974 17.156626 16.418604 19.714285 14.881721 13.948454 12.327272 16.960526 14.988505 18.641790 19.809525 22.109091 24.480000 22.068966 24.226416 
dram[26]: 20.382353 16.523809 18.879999 16.090910 14.548388 16.247059 16.047619 14.977777 14.471910 15.164706 17.666666 15.949368 19.619047 16.972973 24.538462 18.852942 
dram[27]: 21.276922 18.025974 16.658823 19.273973 17.675325 15.208791 14.604396 14.921349 15.925926 15.058824 21.200001 21.310345 20.064516 19.619047 21.750000 35.722221 
dram[28]: 19.408451 18.756756 16.229885 14.863158 15.632184 17.262501 15.066667 14.505377 14.400000 15.388235 16.205128 21.655172 24.816326 16.864864 22.385965 20.935484 
dram[29]: 17.769230 20.072464 18.631578 16.418604 16.071428 17.037037 15.388235 16.000000 14.382023 15.428572 19.092308 18.686567 24.816326 16.876713 22.642857 21.559322 
dram[30]: 17.518988 15.000000 14.262627 17.784811 15.857142 15.636364 14.652174 13.673470 15.566265 12.969697 14.318182 16.311687 18.727272 14.939024 22.456141 17.479452 
dram[31]: 15.885057 18.702703 16.857143 19.661972 14.752688 19.600000 14.666667 15.894117 14.606742 17.698629 18.042856 19.873016 18.507463 19.677420 20.396826 24.769230 
average row locality = 677973/38720 = 17.509634
number of total memory accesses made:
[...]
queue_avg = 33.529457 


dram_util_bins: 0 0 0 0 0 0 0 0 0 0
dram_eff_bins: 0 0 0 0 0 0 0 0 0 0
mrqq: max=64 avg=33.5295
Memory Partition 28: 
Cache L2_bank_056:

Cache L2_bank_057:

In Dram Latency Queue (total = 115): 
DRAM[28]: 16 bks, busW=16 BL=2 CL=12, tRRD=3 tCCD=1, tRCD=12 tRAS=28 tRP=12 tRC=40
n_cmd=29075 n_nop=7112 n_act=1228 n_pre=1214 n_ref_event=0 n_req=21202 n_rd=21054 n_rd_L2_A=0 n_write=0 n_wr_bk=568 bw_util=0.7437
n_activity=24118 dram_eff=0.8965
bk0: 1368a 22743i bk1: 1376a 21986i bk2: 1396a 21674i bk3: 1396a 21388i bk4: 1344a 22250i bk5: 1364a 22459i bk6: 1340a 20890i bk7: 1332a 21399i bk8: 1284a 22019i bk9: 1296a 21757i bk10: 1264a 23311i bk11: 1256a 23259i bk12: 1216a 23537i bk13: 1248a 22708i bk14: 1276a 23463i bk15: 1298a 23274i 

------------------------------------------------------------------------

Row_Buffer_Locality = 0.941976
Row_Buffer_Locality_read = 0.945241
Row_Buffer_Locality_write = 0.457746
Bank_Level_Parallism = 5.341175
Bank_Level_Parallism_Col = 4.524686
Bank_Level_Parallism_Ready = 2.900009
write_to_read_ratio_blp_rw_average = 0.085949
GrpLevelPara = 3.105780 

BW Util details:
bwutil = 0.743663 
total_CMD = 29075 
util_bw = 21622 
Wasted_Col = 2136 
Wasted_Row = 259 
Idle = 5058 

BW Util Bottlenecks: 
RCDc_limit = 1666 
RCDWRc_limit = 289 
WTRc_limit = 703 
RTWc_limit = 2366 
CCDLc_limit = 1679 
rwq = 0 
CCDLc_limit_alone = 1498 
WTRc_limit_alone = 666 
RTWc_limit_alone = 2222 

Commands details: 
total_CMD = 29075 
n_nop = 7112 
Read = 21054 
Write = 0 
L2_Alloc = 0 
L2_WB = 568 
n_act = 1228 
n_pre = 1214 
n_ref = 0 
n_req = 21202 
total_req = 21622 

Dual Bus Interface Util: 
issued_total_row = 2442 
issued_total_col = 21622 
Row_Bus_Util =  0.083990 
CoL_Bus_Util = 0.743663 
Either_Row_CoL_Bus_Util = 0.755391 
Issued_on_Two_Bus_Simul_Util = 0.072261 
issued_two_Eff = 0.095661 
queue_avg = 35.521824 


dram_util_bins: 0 0 0 0 0 0 0 0 0 0
dram_eff_bins: 0 0 0 0 0 0 0 0 0 0
mrqq: max=64 avg=35.5218
Memory Partition 29: 
Cache L2_bank_058:

Cache L2_bank_059:

In Dram Latency Queue (total = 139): 
DRAM[29]: 16 bks, busW=16 BL=2 CL=12, tRRD=3 tCCD=1, tRCD=12 tRAS=28 tRP=12 tRC=40
n_cmd=29075 n_nop=7270 n_act=1185 n_pre=1169 n_ref_event=0 n_req=21044 n_rd=20895 n_rd_L2_A=0 n_write=0 n_wr_bk=568 bw_util=0.7382
n_activity=24018 dram_eff=0.8936
bk0: 1376a 22743i bk1: 1372a 22346i bk2: 1400a 22525i bk3: 1396a 21848i bk4: 1334a 22791i bk5: 1364a 22129i bk6: 1292a 22743i bk7: 1328a 20959i bk8: 1268a 22557i bk9: 1284a 22378i bk10: 1241a 24151i bk11: 1252a 23380i bk12: 1216a 24572i bk13: 1232a 23207i bk14: 1268a 24048i bk15: 1272a 23661i 

------------------------------------------------------------------------

Row_Buffer_Locality = 0.943673
Row_Buffer_Locality_read = 0.946640
Row_Buffer_Locality_write = 0.507042
Bank_Level_Parallism = 5.032405
Bank_Level_Parallism_Col = 4.224485
Bank_Level_Parallism_Ready = 2.709267
write_to_read_ratio_blp_rw_average = 0.077182
GrpLevelPara = 2.991650 

BW Util details:
bwutil = 0.738194 
total_CMD = 29075 
util_bw = 21463 
Wasted_Col = 2271 
Wasted_Row = 151 
Idle = 5190 

BW Util Bottlenecks: 
RCDc_limit = 1797 
RCDWRc_limit = 272 
WTRc_limit = 709 
RTWc_limit = 1905 
CCDLc_limit = 1779 
rwq = 0 
CCDLc_limit_alone = 1602 
WTRc_limit_alone = 654 
RTWc_limit_alone = 1783 

Commands details: 
total_CMD = 29075 
n_nop = 7270 
Read = 20895 
Write = 0 
L2_Alloc = 0 
L2_WB = 568 
n_act = 1185 
n_pre = 1169 
n_ref = 0 
n_req = 21044 
total_req = 21463 

Dual Bus Interface Util: 
issued_total_row = 2354 
issued_total_col = 21463 
Row_Bus_Util =  0.080963 
CoL_Bus_Util = 0.738194 
Either_Row_CoL_Bus_Util = 0.749957 
Issued_on_Two_Bus_Simul_Util = 0.069200 
issued_two_Eff = 0.092272 
queue_avg = 29.878933 


dram_util_bins: 0 0 0 0 0 0 0 0 0 0
dram_eff_bins: 0 0 0 0 0 0 0 0 0 0
mrqq: max=64 avg=29.8789
Memory Partition 30: 
Cache L2_bank_060:

Cache L2_bank_061:

In Dram Latency Queue (total = 103): 
DRAM[30]: 16 bks, busW=16 BL=2 CL=12, tRRD=3 tCCD=1, tRCD=12 tRAS=28 tRP=12 tRC=40
n_cmd=29075 n_nop=7174 n_act=1335 n_pre=1319 n_ref_event=0 n_req=21093 n_rd=20940 n_rd_L2_A=0 n_write=0 n_wr_bk=576 bw_util=0.74
n_activity=24158 dram_eff=0.8906
bk0: 1372a 22112i bk1: 1368a 22185i bk2: 1396a 21761i bk3: 1388a 22132i bk4: 1316a 22498i bk5: 1360a 22179i bk6: 1332a 21033i bk7: 1324a 20540i bk8: 1280a 22026i bk9: 1272a 21968i bk10: 1260a 22821i bk11: 1256a 23159i bk12: 1236a 23227i bk13: 1224a 23126i bk14: 1280a 23778i bk15: 1276a 23173i 

------------------------------------------------------------------------

Row_Buffer_Locality = 0.936640
Row_Buffer_Locality_read = 0.939452
Row_Buffer_Locality_write = 0.527778
Bank_Level_Parallism = 5.346447
Bank_Level_Parallism_Col = 4.461127
Bank_Level_Parallism_Ready = 2.776306
write_to_read_ratio_blp_rw_average = 0.081854
GrpLevelPara = 3.071718 

BW Util details:
bwutil = 0.740017 
total_CMD = 29075 
util_bw = 21516 
Wasted_Col = 2228 
Wasted_Row = 303 
Idle = 5028 

BW Util Bottlenecks: 
RCDc_limit = 2009 
RCDWRc_limit = 230 
WTRc_limit = 658 
RTWc_limit = 2142 
CCDLc_limit = 1864 
rwq = 0 
CCDLc_limit_alone = 1672 
WTRc_limit_alone = 622 
RTWc_limit_alone = 1986 

Commands details: 
total_CMD = 29075 
n_nop = 7174 
Read = 20940 
Write = 0 
L2_Alloc = 0 
L2_WB = 576 
n_act = 1335 
n_pre = 1319 
n_ref = 0 
n_req = 21093 
total_req = 21516 

Dual Bus Interface Util: 
issued_total_row = 2654 
issued_total_col = 21516 
Row_Bus_Util =  0.091281 
CoL_Bus_Util = 0.740017 
Either_Row_CoL_Bus_Util = 0.753259 
Issued_on_Two_Bus_Simul_Util = 0.078040 
issued_two_Eff = 0.103603 
queue_avg = 31.847120 


dram_util_bins: 0 0 0 0 0 0 0 0 0 0
dram_eff_bins: 0 0 0 0 0 0 0 0 0 0
mrqq: max=64 avg=31.8471
Memory Partition 31: 
Cache L2_bank_062:

Cache L2_bank_063:

In Dram Latency Queue (total = 118): 
DRAM[31]: 16 bks, busW=16 BL=2 CL=12, tRRD=3 tCCD=1, tRCD=12 tRAS=28 tRP=12 tRC=40
n_cmd=29075 n_nop=7177 n_act=1196 n_pre=1180 n_ref_event=0 n_req=21178 n_rd=21031 n_rd_L2_A=0 n_write=0 n_wr_bk=584 bw_util=0.7434
n_activity=24086 dram_eff=0.8974
bk0: 1368a 21166i bk1: 1372a 21977i bk2: 1400a 21877i bk3: 1380a 22045i bk4: 1356a 22329i bk5: 1356a 22129i bk6: 1348a 22300i bk7: 1335a 21343i bk8: 1288a 22843i bk9: 1280a 22328i bk10: 1263a 23677i bk11: 1252a 23089i bk12: 1240a 23379i bk13: 1220a 23138i bk14: 1285a 23638i bk15: 1288a 23195i 

------------------------------------------------------------------------

Row_Buffer_Locality = 0.943524
Row_Buffer_Locality_read = 0.946317
Row_Buffer_Locality_write = 0.541096
Bank_Level_Parallism = 5.258885
Bank_Level_Parallism_Col = 4.470854
Bank_Level_Parallism_Ready = 2.891834
write_to_read_ratio_blp_rw_average = 0.079926
GrpLevelPara = 3.126426 

BW Util details:
bwutil = 0.743422 
total_CMD = 29075 
util_bw = 21615 
Wasted_Col = 2078 
Wasted_Row = 252 
Idle = 5130 

BW Util Bottlenecks: 
RCDc_limit = 1302 
RCDWRc_limit = 236 
WTRc_limit = 634 
RTWc_limit = 2293 
CCDLc_limit = 1600 
rwq = 0 
CCDLc_limit_alone = 1417 
WTRc_limit_alone = 571 
RTWc_limit_alone = 2173 

Commands details: 
total_CMD = 29075 
n_nop = 7177 
Read = 21031 
Write = 0 
L2_Alloc = 0 
L2_WB = 584 
n_act = 1196 
n_pre = 1180 
n_ref = 0 
n_req = 21178 
total_req = 21615 

Dual Bus Interface Util: 
issued_total_row = 2376 
issued_total_col = 21615 
Row_Bus_Util =  0.081720 
CoL_Bus_Util = 0.743422 
Either_Row_CoL_Bus_Util = 0.753156 
Issued_on_Two_Bus_Simul_Util = 0.071986 
issued_two_Eff = 0.095580 
queue_avg = 37.501633 


dram_util_bins: 0 0 0 0 0 0 0 0 0 0
dram_eff_bins: 0 0 0 0 0 0 0 0 0 0
mrqq: max=64 avg=37.5016

========= L2 cache stats =========
L2_cache_bank[0]: Access = 13584, Miss = 11062, Miss_rate = 0.814, Pending_hits = 57, Reservation_fails = 1447
L2_cache_bank[1]: Access = 13991, Miss = 11217, Miss_rate = 0.802, Pending_hits = 76, Reservation_fails = 5485
L2_cache_bank[2]: Access = 13591, Miss = 11095, Miss_rate = 0.816, Pending_hits = 72, Reservation_fails = 1948
L2_cache_bank[3]: Access = 13840, Miss = 11132, Miss_rate = 0.804, Pending_hits = 60, Reservation_fails = 2423
L2_cache_bank[4]: Access = 13495, Miss = 11107, Miss_rate = 0.823, Pending_hits = 55, Reservation_fails = 514
L2_cache_bank[5]: Access = 13872, Miss = 11140, Miss_rate = 0.803, Pending_hits = 68, Reservation_fails = 921
L2_cache_bank[6]: Access = 13576, Miss = 11131, Miss_rate = 0.820, Pending_hits = 45, Reservation_fails = 1455
L2_cache_bank[7]: Access = 13893, Miss = 11193, Miss_rate = 0.806, Pending_hits = 74, Reservation_fails = 5017
L2_cache_bank[8]: Access = 13535, Miss = 11107, Miss_rate = 0.821, Pending_hits = 68, Reservation_fails = 3293
L2_cache_bank[9]: Access = 13859, Miss = 11179, Miss_rate = 0.807, Pending_hits = 93, Reservation_fails = 5837
L2_cache_bank[10]: Access = 13576, Miss = 11053, Miss_rate = 0.814, Pending_hits = 83, Reservation_fails = 2506
L2_cache_bank[11]: Access = 14077, Miss = 11251, Miss_rate = 0.799, Pending_hits = 98, Reservation_fails = 6278
L2_cache_bank[12]: Access = 13388, Miss = 11030, Miss_rate = 0.824, Pending_hits = 54, Reservation_fails = 6054
L2_cache_bank[13]: Access = 13899, Miss = 11223, Miss_rate = 0.807, Pending_hits = 79, Reservation_fails = 3191
L2_cache_bank[14]: Access = 13502, Miss = 11153, Miss_rate = 0.826, Pending_hits = 42, Reservation_fails = 5732
L2_cache_bank[15]: Access = 13923, Miss = 11293, Miss_rate = 0.811, Pending_hits = 67, Reservation_fails = 3740
L2_cache_bank[16]: Access = 13546, Miss = 11169, Miss_rate = 0.825, Pending_hits = 66, Reservation_fails = 6550
L2_cache_bank[17]: Access = 13578, Miss = 11176, Miss_rate = 0.823, Pending_hits = 76, Reservation_fails = 3755
L2_cache_bank[18]: Access = 13555, Miss = 11102, Miss_rate = 0.819, Pending_hits = 71, Reservation_fails = 6024
L2_cache_bank[19]: Access = 13801, Miss = 11171, Miss_rate = 0.809, Pending_hits = 58, Reservation_fails = 2897
L2_cache_bank[20]: Access = 13523, Miss = 11129, Miss_rate = 0.823, Pending_hits = 80, Reservation_fails = 495
L2_cache_bank[21]: Access = 13899, Miss = 11094, Miss_rate = 0.798, Pending_hits = 56, Reservation_fails = 399
L2_cache_bank[22]: Access = 13543, Miss = 11115, Miss_rate = 0.821, Pending_hits = 73, Reservation_fails = 313
L2_cache_bank[23]: Access = 13865, Miss = 11153, Miss_rate = 0.804, Pending_hits = 60, Reservation_fails = 1025
L2_cache_bank[24]: Access = 14109, Miss = 11131, Miss_rate = 0.789, Pending_hits = 44, Reservation_fails = 179
L2_cache_bank[25]: Access = 13743, Miss = 11155, Miss_rate = 0.812, Pending_hits = 62, Reservation_fails = 726
L2_cache_bank[26]: Access = 13926, Miss = 11071, Miss_rate = 0.795, Pending_hits = 58, Reservation_fails = 2778
L2_cache_bank[27]: Access = 13686, Miss = 11041, Miss_rate = 0.807, Pending_hits = 56, Reservation_fails = 3263
L2_cache_bank[28]: Access = 13935, Miss = 11160, Miss_rate = 0.801, Pending_hits = 71, Reservation_fails = 1079
L2_cache_bank[29]: Access = 13812, Miss = 11055, Miss_rate = 0.800, Pending_hits = 44, Reservation_fails = 2149
L2_cache_bank[30]: Access = 13998, Miss = 11170, Miss_rate = 0.798, Pending_hits = 81, Reservation_fails = 538
L2_cache_bank[31]: Access = 13769, Miss = 11050, Miss_rate = 0.803, Pending_hits = 64, Reservation_fails = 2046
L2_cache_bank[32]: Access = 13825, Miss = 11038, Miss_rate = 0.798, Pending_hits = 68, Reservation_fails = 315
L2_cache_bank[33]: Access = 13761, Miss = 11099, Miss_rate = 0.807, Pending_hits = 75, Reservation_fails = 476
L2_cache_bank[34]: Access = 13885, Miss = 11044, Miss_rate = 0.795, Pending_hits = 54, Reservation_fails = 139
L2_cache_bank[35]: Access = 13726, Miss = 11067, Miss_rate = 0.806, Pending_hits = 98, Reservation_fails = 2314
L2_cache_bank[36]: Access = 13819, Miss = 11069, Miss_rate = 0.801, Pending_hits = 50, Reservation_fails = 149
L2_cache_bank[37]: Access = 13715, Miss = 11041, Miss_rate = 0.805, Pending_hits = 51, Reservation_fails = 414
L2_cache_bank[38]: Access = 13990, Miss = 11117, Miss_rate = 0.795, Pending_hits = 54, Reservation_fails = 275
L2_cache_bank[39]: Access = 13890, Miss = 11141, Miss_rate = 0.802, Pending_hits = 57, Reservation_fails = 1293
L2_cache_bank[40]: Access = 13916, Miss = 11109, Miss_rate = 0.798, Pending_hits = 67, Reservation_fails = 146
L2_cache_bank[41]: Access = 13772, Miss = 11133, Miss_rate = 0.808, Pending_hits = 93, Reservation_fails = 93
L2_cache_bank[42]: Access = 13870, Miss = 11054, Miss_rate = 0.797, Pending_hits = 54, Reservation_fails = 1308
L2_cache_bank[43]: Access = 13629, Miss = 11061, Miss_rate = 0.812, Pending_hits = 76, Reservation_fails = 129
L2_cache_bank[44]: Access = 13857, Miss = 11059, Miss_rate = 0.798, Pending_hits = 67, Reservation_fails = 573
L2_cache_bank[45]: Access = 13639, Miss = 11026, Miss_rate = 0.808, Pending_hits = 57, Reservation_fails = 551
L2_cache_bank[46]: Access = 13781, Miss = 11091, Miss_rate = 0.805, Pending_hits = 68, Reservation_fails = 2155
L2_cache_bank[47]: Access = 13669, Miss = 11106, Miss_rate = 0.812, Pending_hits = 42, Reservation_fails = 50
L2_cache_bank[48]: Access = 13765, Miss = 11062, Miss_rate = 0.804, Pending_hits = 70, Reservation_fails = 902
L2_cache_bank[49]: Access = 13786, Miss = 11168, Miss_rate = 0.810, Pending_hits = 66, Reservation_fails = 122
L2_cache_bank[50]: Access = 13856, Miss = 11070, Miss_rate = 0.799, Pending_hits = 55, Reservation_fails = 108
L2_cache_bank[51]: Access = 13585, Miss = 11101, Miss_rate = 0.817, Pending_hits = 71, Reservation_fails = 904
L2_cache_bank[52]: Access = 13883, Miss = 11086, Miss_rate = 0.799, Pending_hits = 65, Reservation_fails = 1092
L2_cache_bank[53]: Access = 13661, Miss = 11121, Miss_rate = 0.814, Pending_hits = 62, Reservation_fails = 190
L2_cache_bank[54]: Access = 13809, Miss = 11088, Miss_rate = 0.803, Pending_hits = 62, Reservation_fails = 334
L2_cache_bank[55]: Access = 13629, Miss = 11048, Miss_rate = 0.811, Pending_hits = 49, Reservation_fails = 161
L2_cache_bank[56]: Access = 13754, Miss = 11023, Miss_rate = 0.801, Pending_hits = 71, Reservation_fails = 1466
L2_cache_bank[57]: Access = 13754, Miss = 11163, Miss_rate = 0.812, Pending_hits = 67, Reservation_fails = 75
L2_cache_bank[58]: Access = 13710, Miss = 10924, Miss_rate = 0.797, Pending_hits = 51, Reservation_fails = 258
L2_cache_bank[59]: Access = 13637, Miss = 11108, Miss_rate = 0.815, Pending_hits = 48, Reservation_fails = 186
L2_cache_bank[60]: Access = 13801, Miss = 11055, Miss_rate = 0.801, Pending_hits = 99, Reservation_fails = 699
L2_cache_bank[61]: Access = 13527, Miss = 11050, Miss_rate = 0.817, Pending_hits = 42, Reservation_fails = 894
L2_cache_bank[62]: Access = 13952, Miss = 11186, Miss_rate = 0.802, Pending_hits = 84, Reservation_fails = 3099
L2_cache_bank[63]: Access = 13695, Miss = 11063, Miss_rate = 0.808, Pending_hits = 53, Reservation_fails = 1133
L2_total_cache_accesses = 880437
L2_total_cache_misses = 710879
L2_total_cache_miss_rate = 0.8074
L2_total_cache_pending_hits = 4157
L2_total_cache_reservation_fails = 112060
L2_total_cache_breakdown:
	L2_cache_stats_breakdown[GLOBAL_ACC_R][HIT] = 165401
	L2_cache_stats_breakdown[GLOBAL_ACC_R][HIT_RESERVED] = 4157
	L2_cache_stats_breakdown[GLOBAL_ACC_R][MISS] = 169305
	L2_cache_stats_breakdown[GLOBAL_ACC_R][RESERVATION_FAIL] = 112060
	L2_cache_stats_breakdown[GLOBAL_ACC_R][SECTOR_MISS] = 507769
	L2_cache_stats_breakdown[LOCAL_ACC_R][HIT] = 0
	L2_cache_stats_breakdown[LOCAL_ACC_R][HIT_RESERVED] = 0
	L2_cache_stats_breakdown[LOCAL_ACC_R][MISS] = 0
	L2_cache_stats_breakdown[LOCAL_ACC_R][RESERVATION_FAIL] = 0
	L2_cache_stats_breakdown[LOCAL_ACC_R][SECTOR_MISS] = 0
	L2_cache_stats_breakdown[CONST_ACC_R][HIT] = 0
	L2_cache_stats_breakdown[CONST_ACC_R][HIT_RESERVED] = 0
	L2_cache_stats_breakdown[CONST_ACC_R][MISS] = 0
	L2_cache_stats_breakdown[CONST_ACC_R][RESERVATION_FAIL] = 0
	L2_cache_stats_breakdown[CONST_ACC_R][SECTOR_MISS] = 0
	L2_cache_stats_breakdown[TEXTURE_ACC_R][HIT] = 0
	L2_cache_stats_breakdown[TEXTURE_ACC_R][HIT_RESERVED] = 0
	L2_cache_stats_breakdown[TEXTURE_ACC_R][MISS] = 0
	L2_cache_stats_breakdown[TEXTURE_ACC_R][RESERVATION_FAIL] = 0
	L2_cache_stats_breakdown[TEXTURE_ACC_R][SECTOR_MISS] = 0
	L2_cache_stats_breakdown[GLOBAL_ACC_W][HIT] = 0
	L2_cache_stats_breakdown[GLOBAL_ACC_W][HIT_RESERVED] = 0
	L2_cache_stats_breakdown[GLOBAL_ACC_W][MISS] = 6667
	L2_cache_stats_breakdown[GLOBAL_ACC_W][RESERVATION_FAIL] = 0
	L2_cache_stats_breakdown[GLOBAL_ACC_W][SECTOR_MISS] = 27138
	L2_cache_stats_breakdown[LOCAL_ACC_W][HIT] = 0
	L2_cache_stats_breakdown[LOCAL_ACC_W][HIT_RESERVED] = 0
	L2_cache_stats_breakdown[LOCAL_ACC_W][MISS] = 0
	L2_cache_stats_breakdown[LOCAL_ACC_W][RESERVATION_FAIL] = 0
	L2_cache_stats_breakdown[LOCAL_ACC_W][SECTOR_MISS] = 0
	L2_cache_stats_breakdown[L1_WRBK_ACC][HIT] = 0
	L2_cache_stats_breakdown[L1_WRBK_ACC][HIT_RESERVED] = 0
	L2_cache_stats_breakdown[L1_WRBK_ACC][MISS] = 0
	L2_cache_stats_breakdown[L1_WRBK_ACC][RESERVATION_FAIL] = 0
	L2_cache_stats_breakdown[L1_WRBK_ACC][SECTOR_MISS] = 0
	L2_cache_stats_breakdown[L2_WRBK_ACC][HIT] = 0
	L2_cache_stats_breakdown[L2_WRBK_ACC][HIT_RESERVED] = 0
	L2_cache_stats_breakdown[L2_WRBK_ACC][MISS] = 0
	L2_cache_stats_breakdown[L2_WRBK_ACC][RESERVATION_FAIL] = 0
	L2_cache_stats_breakdown[L2_WRBK_ACC][SECTOR_MISS] = 0
	L2_cache_stats_breakdown[INST_ACC_R][HIT] = 0
	L2_cache_stats_breakdown[INST_ACC_R][HIT_RESERVED] = 0
	L2_cache_stats_breakdown[INST_ACC_R][MISS] = 0
	L2_cache_stats_breakdown[INST_ACC_R][RESERVATION_FAIL] = 0
	L2_cache_stats_breakdown[INST_ACC_R][SECTOR_MISS] = 0
	L2_cache_stats_breakdown[L1_WR_ALLOC_R][HIT] = 0
	L2_cache_stats_breakdown[L1_WR_ALLOC_R][HIT_RESERVED] = 0
	L2_cache_stats_breakdown[L1_WR_ALLOC_R][MISS] = 0
	L2_cache_stats_breakdown[L1_WR_ALLOC_R][RESERVATION_FAIL] = 0
	L2_cache_stats_breakdown[L1_WR_ALLOC_R][SECTOR_MISS] = 0
	L2_cache_stats_breakdown[L2_WR_ALLOC_R][HIT] = 0
	L2_cache_stats_breakdown[L2_WR_ALLOC_R][HIT_RESERVED] = 0
	L2_cache_stats_breakdown[L2_WR_ALLOC_R][MISS] = 0
	L2_cache_stats_breakdown[L2_WR_ALLOC_R][RESERVATION_FAIL] = 0
	L2_cache_stats_breakdown[L2_WR_ALLOC_R][SECTOR_MISS] = 0
	L2_cache_stats_breakdown[GLOBAL_ACC_R][TOTAL_ACCESS] = 846632
	L2_cache_stats_breakdown[GLOBAL_ACC_W][TOTAL_ACCESS] = 33805
L2_total_cache_reservation_fail_breakdown:
	L2_cache_stats_fail_breakdown[GLOBAL_ACC_R][MSHR_ENRTY_FAIL] = 111427
	L2_cache_stats_fail_breakdown[GLOBAL_ACC_R][MSHR_MERGE_ENRTY_FAIL] = 633
L2_cache_data_port_util = 0.067
L2_cache_fill_port_util = 0.272

icnt_total_pkts_mem_to_simt=875967
icnt_total_pkts_simt_to_mem=892009
LD_mem_lat_dist  0 0 0 0 0 0 0 0 0 0 0 0 0 0 0 0 0 0 0 0 0 0 0 0 0 0 0
ST_mem_lat_dist  0 0 0 0 0 0 0 0 0 0 0 0 0 0 0 0 0 0 0 0 0 0 0 0 0 0 0
----------------------------Interconnect-DETAILS--------------------------------
Req_Network_injected_packets_num = 892009
Req_Network_cycles = 38721
Req_Network_injected_packets_per_cycle =      23.0368 
Req_Network_conflicts_per_cycle =      15.2046
Req_Network_conflicts_per_cycle_util =      17.6909
Req_Bank_Level_Parallism =      26.6539
Req_Network_in_buffer_full_per_cycle =       0.0000
Req_Network_in_buffer_avg_util =      12.5841
Req_Network_out_buffer_full_per_cycle =       0.0000
Req_Network_out_buffer_avg_util =      20.0243

Reply_Network_injected_packets_num = 876293
Reply_Network_cycles = 38721
Reply_Network_injected_packets_per_cycle =       22.6309
Reply_Network_conflicts_per_cycle =        8.4861
Reply_Network_conflicts_per_cycle_util =       9.9497
Reply_Bank_Level_Parallism =      26.5256
Reply_Network_in_buffer_full_per_cycle =       0.0000
Reply_Network_in_buffer_avg_util =       2.7506
Reply_Network_out_buffer_full_per_cycle =       0.0000
Reply_Network_out_buffer_avg_util =       0.2828
----------------------------END-of-Interconnect-DETAILS-------------------------


gpgpu_simulation_time = 0 days, 0 hrs, 7 min, 15 sec (435 sec)
gpgpu_simulation_rate = 97169 (inst/sec)
gpgpu_simulation_rate = 89 (cycle/sec)
gpgpu_silicon_slowdown = 12719101x
GPGPU-Sim: *** simulation thread exiting ***
GPGPU-Sim: ** break due to reaching the maximum cycles (or instructions) **
GPGPU-Sim: *** exit detected ***
