

        *** GPGPU-Sim Simulator Version 4.0.0  [build gpgpu-sim_git-commit-ffe0a1a00e984ecce9bf36e17ab94c4de0de8108_modified_0.0] ***


GPGPU-Sim PTX: simulation mode 0 (can change with PTX_SIM_MODE_FUNC environment variable:
               1=functional simulation only, 0=detailed performance simulator)
GPGPU-Sim PTX: overriding embedded ptx with ptx file (PTX_SIM_USE_PTX_FILE is set)
GPGPU-Sim: Configuration options:

-save_embedded_ptx                      0 # saves ptx files embedded in binary as <n>.ptx
-keep                                   0 # keep intermediate files created by GPGPU-Sim when interfacing with external programs
-gpgpu_ptx_save_converted_ptxplus                    0 # Saved converted ptxplus to a file
-gpgpu_occupancy_sm_number                   70 # The SM number to pass to ptxas when getting register usage for computing GPU occupancy. This parameter is required in the config.
-ptx_opcode_latency_int      4,13,4,5,145,21 # Opcode latencies for integers <ADD,MAX,MUL,MAD,DIV,SHFL>Default 1,1,19,25,145,32
-ptx_opcode_latency_fp          4,13,4,5,39 # Opcode latencies for single precision floating points <ADD,MAX,MUL,MAD,DIV>Default 1,1,1,1,30
-ptx_opcode_latency_dp         8,19,8,8,330 # Opcode latencies for double precision floating points <ADD,MAX,MUL,MAD,DIV>Default 8,8,8,8,335
-ptx_opcode_latency_sfu                  100 # Opcode latencies for SFU instructionsDefault 8
-ptx_opcode_latency_tesnor                   64 # Opcode latencies for Tensor instructionsDefault 64
-ptx_opcode_initiation_int          2,2,2,2,8,4 # Opcode initiation intervals for integers <ADD,MAX,MUL,MAD,DIV,SHFL>Default 1,1,4,4,32,4
-ptx_opcode_initiation_fp            2,2,2,2,4 # Opcode initiation intervals for single precision floating points <ADD,MAX,MUL,MAD,DIV>Default 1,1,1,1,5
-ptx_opcode_initiation_dp          4,4,4,4,130 # Opcode initiation intervals for double precision floating points <ADD,MAX,MUL,MAD,DIV>Default 8,8,8,8,130
-ptx_opcode_initiation_sfu                    8 # Opcode initiation intervals for sfu instructionsDefault 8
-ptx_opcode_initiation_tensor                   64 # Opcode initiation intervals for tensor instructionsDefault 64
-cdp_latency         7200,8000,100,12000,1600 # CDP API latency <cudaStreamCreateWithFlags, cudaGetParameterBufferV2_init_perWarp, cudaGetParameterBufferV2_perKernel, cudaLaunchDeviceV2_init_perWarp, cudaLaunchDevicV2_perKernel>Default 7200,8000,100,12000,1600
-network_mode                           2 # Interconnection network mode
-inter_config_file                   mesh # Interconnection network config file
-icnt_in_buffer_limit                  512 # in_buffer_limit
-icnt_out_buffer_limit                  512 # out_buffer_limit
-icnt_subnets                           2 # subnets
-icnt_arbiter_algo                      1 # arbiter_algo
-icnt_verbose                           0 # inct_verbose
-icnt_grant_cycles                      1 # grant_cycles
-gpgpu_ptx_use_cuobjdump                    1 # Use cuobjdump to extract ptx and sass from binaries
-gpgpu_experimental_lib_support                    0 # Try to extract code from cuda libraries [Broken because of unknown cudaGetExportTable]
-checkpoint_option                      0 #  checkpointing flag (0 = no checkpoint)
-checkpoint_kernel                      1 #  checkpointing during execution of which kernel (1- 1st kernel)
-checkpoint_CTA                         0 #  checkpointing after # of CTA (< less than total CTA)
-resume_option                          0 #  resume flag (0 = no resume)
-resume_kernel                          0 #  Resume from which kernel (1= 1st kernel)
-resume_CTA                             0 #  resume from which CTA 
-checkpoint_CTA_t                       0 #  resume from which CTA 
-checkpoint_insn_Y                      0 #  resume from which CTA 
-gpgpu_ptx_convert_to_ptxplus                    0 # Convert SASS (native ISA) to ptxplus and run ptxplus
-gpgpu_ptx_force_max_capability                   70 # Force maximum compute capability
-gpgpu_ptx_inst_debug_to_file                    0 # Dump executed instructions' debug information to file
-gpgpu_ptx_inst_debug_file       inst_debug.txt # Executed instructions' debug output file
-gpgpu_ptx_inst_debug_thread_uid                    1 # Thread UID for executed instructions' debug output
-gpgpu_n_mem_for_l2wb_pcommit                   32 # number of memory modules (e.g. memory controllers) in gpu
-gpgpu_n_sub_partition_per_mchannel_for_l2wb_pcommit                    2 # number of memory subpartition in each memory module
-gpgpu_dl2_bsize_for_l2wb_pcommit                  128 # default 128 bytes
-gpgpu_simd_model                       1 # 1 = post-dominator
-gpgpu_shader_core_pipeline              2048:32 # shader core pipeline config, i.e., {<nthread>:<warpsize>}
-gpgpu_tex_cache:l1  N:4:128:256,L:R:m:N:L,T:512:8,128:2 # per-shader L1 texture cache  (READ-ONLY) config  {<nsets>:<bsize>:<assoc>,<rep>:<wr>:<alloc>:<wr_alloc>,<mshr>:<N>:<merge>,<mq>:<rf>}
-gpgpu_const_cache:l1 N:128:64:8,L:R:f:N:L,S:2:64,4 # per-shader L1 constant memory cache  (READ-ONLY) config  {<nsets>:<bsize>:<assoc>,<rep>:<wr>:<alloc>:<wr_alloc>,<mshr>:<N>:<merge>,<mq>} 
-gpgpu_cache:il1     N:64:128:16,L:R:f:N:L,S:2:48,4 # shader L1 instruction cache config  {<nsets>:<bsize>:<assoc>,<rep>:<wr>:<alloc>:<wr_alloc>,<mshr>:<N>:<merge>,<mq>} 
-gpgpu_cache:dl1     S:1:128:256,L:L:s:N:L,A:256:8,16:0,32 # per-shader L1 data cache config  {<nsets>:<bsize>:<assoc>,<rep>:<wr>:<alloc>:<wr_alloc>,<mshr>:<N>:<merge>,<mq> | none}
-gpgpu_l1_banks                         4 # The number of L1 cache banks
-gpgpu_l1_banks_byte_interleaving                   32 # l1 banks byte interleaving granularity
-gpgpu_l1_banks_hashing_function                    0 # l1 banks hashing function
-gpgpu_l1_latency                      20 # L1 Hit Latency
-gpgpu_smem_latency                    20 # smem Latency
-gpgpu_cache:dl1PrefL1                 none # per-shader L1 data cache config  {<nsets>:<bsize>:<assoc>,<rep>:<wr>:<alloc>:<wr_alloc>,<mshr>:<N>:<merge>,<mq> | none}
-gpgpu_cache:dl1PrefShared                 none # per-shader L1 data cache config  {<nsets>:<bsize>:<assoc>,<rep>:<wr>:<alloc>:<wr_alloc>,<mshr>:<N>:<merge>,<mq> | none}
-gpgpu_gmem_skip_L1D                    0 # global memory access skip L1D cache (implements -Xptxas -dlcm=cg, default=no skip)
-gpgpu_perfect_mem                      0 # enable perfect memory mode (no cache miss)
-n_regfile_gating_group                    4 # group of lanes that should be read/written together)
-gpgpu_clock_gated_reg_file                    0 # enable clock gated reg file for power calculations
-gpgpu_clock_gated_lanes                    0 # enable clock gated lanes for power calculations
-gpgpu_shader_registers                65536 # Number of registers per shader core. Limits number of concurrent CTAs. (default 8192)
-gpgpu_registers_per_block                65536 # Maximum number of registers per CTA. (default 8192)
-gpgpu_ignore_resources_limitation                    0 # gpgpu_ignore_resources_limitation (default 0)
-gpgpu_shader_cta                      32 # Maximum number of concurrent CTAs in shader (default 8)
-gpgpu_num_cta_barriers                   16 # Maximum number of named barriers per CTA (default 16)
-gpgpu_n_clusters                      80 # number of processing clusters
-gpgpu_n_cores_per_cluster                    1 # number of simd cores per cluster
-gpgpu_n_cluster_ejection_buffer_size                   32 # number of packets in ejection buffer
-gpgpu_n_ldst_response_buffer_size                    2 # number of response packets in ld/st unit ejection buffer
-gpgpu_shmem_per_block                65536 # Size of shared memory per thread block or CTA (default 48kB)
-gpgpu_shmem_size                   98304 # Size of shared memory per shader core (default 16kB)
-gpgpu_adaptive_cache_config            536870913 # adaptive_cache_config
-gpgpu_shmem_sizeDefault                98304 # Size of shared memory per shader core (default 16kB)
-gpgpu_shmem_size_PrefL1                16384 # Size of shared memory per shader core (default 16kB)
-gpgpu_shmem_size_PrefShared                16384 # Size of shared memory per shader core (default 16kB)
-gpgpu_shmem_num_banks                   32 # Number of banks in the shared memory in each shader core (default 16)
-gpgpu_shmem_limited_broadcast                    0 # Limit shared memory to do one broadcast per cycle (default on)
-gpgpu_shmem_warp_parts                    1 # Number of portions a warp is divided into for shared memory bank conflict check 
-gpgpu_mem_unit_ports                    1 # The number of memory transactions allowed per core cycle
-gpgpu_shmem_warp_parts                    1 # Number of portions a warp is divided into for shared memory bank conflict check 
-gpgpu_warpdistro_shader                   -1 # Specify which shader core to collect the warp size distribution from
-gpgpu_warp_issue_shader                    0 # Specify which shader core to collect the warp issue distribution from
-gpgpu_local_mem_map                    1 # Mapping from local memory space address to simulated GPU physical address space (default = enabled)
-gpgpu_num_reg_banks                   16 # Number of register banks (default = 8)
-gpgpu_reg_bank_use_warp_id                    0 # Use warp ID in mapping registers to banks (default = off)
-gpgpu_sub_core_model                    1 # Sub Core Volta/Pascal model (default = off)
-gpgpu_enable_specialized_operand_collector                    0 # enable_specialized_operand_collector
-gpgpu_operand_collector_num_units_sp                    4 # number of collector units (default = 4)
-gpgpu_operand_collector_num_units_dp                    0 # number of collector units (default = 0)
-gpgpu_operand_collector_num_units_sfu                    4 # number of collector units (default = 4)
-gpgpu_operand_collector_num_units_int                    0 # number of collector units (default = 0)
-gpgpu_operand_collector_num_units_tensor_core                    4 # number of collector units (default = 4)
-gpgpu_operand_collector_num_units_mem                    2 # number of collector units (default = 2)
-gpgpu_operand_collector_num_units_gen                    8 # number of collector units (default = 0)
-gpgpu_operand_collector_num_in_ports_sp                    1 # number of collector unit in ports (default = 1)
-gpgpu_operand_collector_num_in_ports_dp                    0 # number of collector unit in ports (default = 0)
-gpgpu_operand_collector_num_in_ports_sfu                    1 # number of collector unit in ports (default = 1)
-gpgpu_operand_collector_num_in_ports_int                    0 # number of collector unit in ports (default = 0)
-gpgpu_operand_collector_num_in_ports_tensor_core                    1 # number of collector unit in ports (default = 1)
-gpgpu_operand_collector_num_in_ports_mem                    1 # number of collector unit in ports (default = 1)
-gpgpu_operand_collector_num_in_ports_gen                    8 # number of collector unit in ports (default = 0)
-gpgpu_operand_collector_num_out_ports_sp                    1 # number of collector unit in ports (default = 1)
-gpgpu_operand_collector_num_out_ports_dp                    0 # number of collector unit in ports (default = 0)
-gpgpu_operand_collector_num_out_ports_sfu                    1 # number of collector unit in ports (default = 1)
-gpgpu_operand_collector_num_out_ports_int                    0 # number of collector unit in ports (default = 0)
-gpgpu_operand_collector_num_out_ports_tensor_core                    1 # number of collector unit in ports (default = 1)
-gpgpu_operand_collector_num_out_ports_mem                    1 # number of collector unit in ports (default = 1)
-gpgpu_operand_collector_num_out_ports_gen                    8 # number of collector unit in ports (default = 0)
-gpgpu_coalesce_arch                   60 # Coalescing arch (GT200 = 13, Fermi = 20)
-gpgpu_num_sched_per_core                    4 # Number of warp schedulers per core
-gpgpu_max_insn_issue_per_warp                    1 # Max number of instructions that can be issued per warp in one cycle by scheduler (either 1 or 2)
-gpgpu_dual_issue_diff_exec_units                    1 # should dual issue use two different execution unit resources (Default = 1)
-gpgpu_simt_core_sim_order                    1 # Select the simulation order of cores in a cluster (0=Fix, 1=Round-Robin)
-gpgpu_pipeline_widths 4,4,4,4,4,4,4,4,4,4,8,4,4 # Pipeline widths ID_OC_SP,ID_OC_DP,ID_OC_INT,ID_OC_SFU,ID_OC_MEM,OC_EX_SP,OC_EX_DP,OC_EX_INT,OC_EX_SFU,OC_EX_MEM,EX_WB,ID_OC_TENSOR_CORE,OC_EX_TENSOR_CORE
-gpgpu_tensor_core_avail                    1 # Tensor Core Available (default=0)
-gpgpu_num_sp_units                     4 # Number of SP units (default=1)
-gpgpu_num_dp_units                     4 # Number of DP units (default=0)
-gpgpu_num_int_units                    4 # Number of INT units (default=0)
-gpgpu_num_sfu_units                    4 # Number of SF units (default=1)
-gpgpu_num_tensor_core_units                    4 # Number of tensor_core units (default=1)
-gpgpu_num_mem_units                    1 # Number if ldst units (default=1) WARNING: not hooked up to anything
-gpgpu_scheduler                      gto # Scheduler configuration: < lrr | gto | two_level_active > If two_level_active:<num_active_warps>:<inner_prioritization>:<outer_prioritization>For complete list of prioritization values see shader.h enum scheduler_prioritization_typeDefault: gto
-gpgpu_concurrent_kernel_sm                    0 # Support concurrent kernels on a SM (default = disabled)
-gpgpu_perfect_inst_const_cache                    1 # perfect inst and const cache mode, so all inst and const hits in the cache(default = disabled)
-gpgpu_inst_fetch_throughput                    4 # the number of fetched intruction per warp each cycle
-gpgpu_reg_file_port_throughput                    2 # the number ports of the register file
-specialized_unit_1         0,4,4,4,4,BRA # specialized unit config {<enabled>,<num_units>:<latency>:<initiation>,<ID_OC_SPEC>:<OC_EX_SPEC>,<NAME>}
-specialized_unit_2         0,4,4,4,4,BRA # specialized unit config {<enabled>,<num_units>:<latency>:<initiation>,<ID_OC_SPEC>:<OC_EX_SPEC>,<NAME>}
-specialized_unit_3         0,4,4,4,4,BRA # specialized unit config {<enabled>,<num_units>:<latency>:<initiation>,<ID_OC_SPEC>:<OC_EX_SPEC>,<NAME>}
-specialized_unit_4         0,4,4,4,4,BRA # specialized unit config {<enabled>,<num_units>:<latency>:<initiation>,<ID_OC_SPEC>:<OC_EX_SPEC>,<NAME>}
-specialized_unit_5         0,4,4,4,4,BRA # specialized unit config {<enabled>,<num_units>:<latency>:<initiation>,<ID_OC_SPEC>:<OC_EX_SPEC>,<NAME>}
-specialized_unit_6         0,4,4,4,4,BRA # specialized unit config {<enabled>,<num_units>:<latency>:<initiation>,<ID_OC_SPEC>:<OC_EX_SPEC>,<NAME>}
-specialized_unit_7         0,4,4,4,4,BRA # specialized unit config {<enabled>,<num_units>:<latency>:<initiation>,<ID_OC_SPEC>:<OC_EX_SPEC>,<NAME>}
-specialized_unit_8         0,4,4,4,4,BRA # specialized unit config {<enabled>,<num_units>:<latency>:<initiation>,<ID_OC_SPEC>:<OC_EX_SPEC>,<NAME>}
-gpgpu_perf_sim_memcpy                    1 # Fill the L2 cache on memcpy
-gpgpu_simple_dram_model                    0 # simple_dram_model with fixed latency and BW
-gpgpu_dram_scheduler                    1 # 0 = fifo, 1 = FR-FCFS (defaul)
-gpgpu_dram_partition_queues          64:64:64:64 # i2$:$2d:d2$:$2i
-l2_ideal                               0 # Use a ideal L2 cache that always hit
-gpgpu_cache:dl2     S:32:128:24,L:B:m:L:P,A:192:4,32:0,32 # unified banked L2 data cache config  {<nsets>:<bsize>:<assoc>,<rep>:<wr>:<alloc>:<wr_alloc>,<mshr>:<N>:<merge>,<mq>}
-gpgpu_cache:dl2_texture_only                    0 # L2 cache used for texture only
-gpgpu_n_mem                           32 # number of memory modules (e.g. memory controllers) in gpu
-gpgpu_n_sub_partition_per_mchannel                    2 # number of memory subpartition in each memory module
-gpgpu_n_mem_per_ctrlr                    1 # number of memory chips per memory controller
-gpgpu_memlatency_stat                   14 # track and display latency statistics 0x2 enables MC, 0x4 enables queue logs
-gpgpu_frfcfs_dram_sched_queue_size                   64 # 0 = unlimited (default); # entries per chip
-gpgpu_dram_return_queue_size                  192 # 0 = unlimited (default); # entries per chip
-gpgpu_dram_buswidth                   16 # default = 4 bytes (8 bytes per cycle at DDR)
-gpgpu_dram_burst_length                    2 # Burst length of each DRAM request (default = 4 data bus cycle)
-dram_data_command_freq_ratio                    2 # Frequency ratio between DRAM data bus and command bus (default = 2 times, i.e. DDR)
-gpgpu_dram_timing_opt nbk=16:CCD=1:RRD=3:RCD=12:RAS=28:RP=12:RC=40: CL=12:WL=2:CDLR=3:WR=10:nbkgrp=4:CCDL=2:RTPL=3 # DRAM timing parameters = {nbk:tCCD:tRRD:tRCD:tRAS:tRP:tRC:CL:WL:tCDLR:tWR:nbkgrp:tCCDL:tRTPL}
-gpgpu_l2_rop_latency                  160 # ROP queue latency (default 85)
-dram_latency                         200 # DRAM latency (default 30)
-dram_write_latency                   600 # DRAM write latency (default 100)
-dram_dual_bus_interface                    1 # dual_bus_interface (default = 0) 
-dram_bnk_indexing_policy                    0 # dram_bnk_indexing_policy (0 = normal indexing, 1 = Xoring with the higher bits) (Default = 0)
-dram_bnkgrp_indexing_policy                    1 # dram_bnkgrp_indexing_policy (0 = take higher bits, 1 = take lower bits) (Default = 0)
-dram_seperate_write_queue_enable                    0 # Seperate_Write_Queue_Enable
-dram_write_queue_size             32:28:16 # Write_Queue_Size
-dram_elimnate_rw_turnaround                    0 # elimnate_rw_turnaround i.e set tWTR and tRTW = 0
-icnt_flit_size                        40 # icnt_flit_size
-gpgpu_mem_addr_mapping dramid@8;00000000.00000000.00000000.00000000.0000RRRR.RRRRRRRR.RBBBCCCB.CCCSSSSS # mapping memory address to dram model {dramid@<start bit>;<memory address map>}
-gpgpu_mem_addr_test                    0 # run sweep test to check address mapping for aliased address
-gpgpu_mem_address_mask                    1 # 0 = old addressing mask, 1 = new addressing mask, 2 = new add. mask + flipped bank sel and chip sel bits
-gpgpu_memory_partition_indexing                    0 # 0 = no indexing, 1 = bitwise xoring, 2 = IPoly, 3 = custom indexing
-gpuwattch_xml_file         gpuwattch.xml # GPUWattch XML file
-power_simulation_enabled                    0 # Turn on power simulator (1=On, 0=Off)
-power_per_cycle_dump                    0 # Dump detailed power output each cycle
-power_trace_enabled                    0 # produce a file for the power trace (1=On, 0=Off)
-power_trace_zlevel                     6 # Compression level of the power trace output log (0=no comp, 9=highest)
-steady_power_levels_enabled                    0 # produce a file for the steady power levels (1=On, 0=Off)
-steady_state_definition                  8:4 # allowed deviation:number of samples
-gpgpu_max_cycle                        0 # terminates gpu simulation early (0 = no limit)
-gpgpu_max_insn                         0 # terminates gpu simulation early (0 = no limit)
-gpgpu_max_cta                          0 # terminates gpu simulation early (0 = no limit)
-gpgpu_max_completed_cta                  256 # terminates gpu simulation early (0 = no limit)
-gpgpu_runtime_stat                   500 # display runtime statistics such as dram utilization {<freq>:<flag>}
-liveness_message_freq                    1 # Minimum number of seconds between simulation liveness messages (0 = always print)
-gpgpu_compute_capability_major                    7 # Major compute capability version number
-gpgpu_compute_capability_minor                    0 # Minor compute capability version number
-gpgpu_flush_l1_cache                    1 # Flush L1 cache at the end of each kernel call
-gpgpu_flush_l2_cache                    0 # Flush L2 cache at the end of each kernel call
-gpgpu_deadlock_detect                    1 # Stop the simulation at deadlock (1=on (default), 0=off)
-gpgpu_ptx_instruction_classification                    0 # if enabled will classify ptx instruction types per kernel (Max 255 kernels now)
-gpgpu_ptx_sim_mode                     0 # Select between Performance (default) or Functional simulation (1)
-gpgpu_clock_domains 1132.0:1132.0:1132.0:850.0 # Clock Domain Frequencies in MhZ {<Core Clock>:<ICNT Clock>:<L2 Clock>:<DRAM Clock>}
-gpgpu_max_concurrent_kernel                    8 # maximum kernels that can run concurrently on GPU
-gpgpu_cflog_interval                    0 # Interval between each snapshot in control flow logger
-visualizer_enabled               e2c96ab854920b9b814ed0b032e65335  /home/pli11/Videos/parboil_benchmark/parboil/benchmarks/spmv/build/nvm_default/spmv
Extracting PTX file and ptxas options    1: spmv.1.sm_70.ptx -arch=sm_70
      0 # Turn on visualizer output (1=On, 0=Off)
-visualizer_outputfile                 NULL # Specifies the output log file for visualizer
-visualizer_zlevel                      6 # Compression level of the visualizer output log (0=no comp, 9=highest)
-gpgpu_stack_size_limit                 1024 # GPU thread stack size
-gpgpu_heap_size_limit              8388608 # GPU malloc heap size 
-gpgpu_runtime_sync_depth_limit                    2 # GPU device runtime synchronize depth
-gpgpu_runtime_pending_launch_count_limit                 2048 # GPU device runtime pending launch count
-trace_enabled                          0 # Turn on traces
-trace_components                    none # comma seperated list of traces to enable. Complete list found in trace_streams.tup. Default none
-trace_sampling_core                    0 # The core which is printed using CORE_DPRINTF. Default 0
-trace_sampling_memory_partition                   -1 # The memory partition which is printed using MEMPART_DPRINTF. Default -1 (i.e. all)
-enable_ptx_file_line_stats                    1 # Turn on PTX source line statistic profiling. (1 = On)
-ptx_line_stats_filename gpgpu_inst_stats.txt # Output file for PTX source line statistics.
-gpgpu_kernel_launch_latency                 5000 # Kernel launch latency in cycles. Default: 0
-gpgpu_cdp_enabled                      0 # Turn on CDP
-gpgpu_TB_launch_latency                    0 # thread block launch latency in cycles. Default: 0
DRAM Timing Options:
nbk                                    16 # number of banks
CCD                                     1 # column to column delay
RRD                                     3 # minimal delay between activation of rows in different banks
RCD                                    12 # row to column delay
RAS                                    28 # time needed to activate row
RP                                     12 # time needed to precharge (deactivate) row
RC                                     40 # row cycle time
CDLR                                    3 # switching from write to read (changes tWTR)
WR                                     10 # last data-in to row precharge
CL                                     12 # CAS latency
WL                                      2 # Write latency
nbkgrp                                  4 # number of bank groups
CCDL                                    2 # column to column delay between accesses to different bank groups
RTPL                                    3 # read to precharge delay between accesses to different bank groups
Total number of memory sub partition = 64
addr_dec_mask[CHIP]  = 0000000000001f00 	high:13 low:8
addr_dec_mask[BK]    = 00000000000e2000 	high:20 low:13
addr_dec_mask[ROW]   = 00000001fff00000 	high:33 low:20
addr_dec_mask[COL]   = 000000000001c0ff 	high:17 low:0
addr_dec_mask[BURST] = 000000000000001f 	high:5 low:0
sub_partition_id_mask = 0000000000002000
GPGPU-Sim uArch: clock freqs: 1132000000.000000:1132000000.000000:1132000000.000000:850000000.000000
GPGPU-Sim uArch: clock periods: 0.00000000088339222615:0.00000000088339222615:0.00000000088339222615:0.00000000117647058824
*** Initializing Memory Statistics ***
GPGPU-Sim uArch: performance model initialization complete.
self exe links to: /home/pli11/Videos/parboil_benchmark/parboil/benchmarks/spmv/build/nvm_default/spmv
self exe links to: /home/pli11/Videos/parboil_benchmark/parboil/benchmarks/spmv/build/nvm_default/spmv
10.1
GPGPU-Sim PTX: __cudaRegisterFatBinary, fat_cubin_handle = 1, filename=default
self exe links to: /home/pli11/Videos/parboil_benchmark/parboil/benchmarks/spmv/build/nvm_default/spmv
Running md5sum using "md5sum /home/pli11/Videos/parboil_benchmark/parboil/benchmarks/spmv/build/nvm_default/spmv "
self exe links to: /home/pli11/Videos/parboil_benchmark/parboil/benchmarks/spmv/build/nvm_default/spmv
Extracting specific PTX file named spmv.1.sm_70.ptx 
GPGPU-Sim PTX: __cudaRegisterFunction _Z13spmv_jds_nvmbPfPKfPKiS3_S1_S3_i : hostFun 0x0x40402b, fat_cubin_handle = 1
GPGPU-Sim PTX: Parsing spmv.1.sm_70.ptx
GPGPU-Sim PTX: allocating global region for "tex_x_float" from 0x100 to 0x104 (global memory space)
GPGPU-Sim PTX: allocating constant region for "jds_ptr_int" from 0x180 to 0x4fa0 (global memory space) 1
GPGPU-Sim PTX: allocating constant region for "sh_zcnt_int" from 0x5000 to 0x9e20 (global memory space) 2
GPGPU-Sim PTX: allocating global region for "NVM_log" from 0x9e80 to 0x4009e80 (global memory space)
GPGPU-Sim PTX: allocating global region for "NVM_flag" from 0x4009e80 to 0x4409e80 (global memory space)
GPGPU-Sim PTX: instruction assembly for function '_Z13spmv_jds_nvmoPfPKfPKiS3_S1_S3_i'...   done.
GPGPU-Sim PTX: instruction assembly for function '_Z13spmv_jds_nvmuPfPKfPKiS3_S1_S3_i'...   done.
GPGPU-Sim PTX: instruction assembly for function '_Z13spmv_jds_nvm1PfPKfPKiS3_S1_S3_i'...   done.
GPGPU-Sim PTX: instruction assembly for function '_Z13spmv_jds_nvm2PfPKfPKiS3_S1_S3_i'...   done.
GPGPU-Sim PTX: instruction assembly for function '_Z13spmv_jds_nvmgPfPKfPKiS3_S1_S3_i'...   done.
GPGPU-Sim PTX: instruction assembly for function '_Z13spmv_jds_nvm3PfPKfPKiS3_S1_S3_i'...   done.
GPGPU-Sim PTX: instruction assembly for function '_Z13spmv_jds_nvm4PfPKfPKiS3_S1_S3_i'...   done.
GPGPU-Sim PTX: instruction assembly for function '_Z13spmv_jds_nvmiPfPKfPKiS3_S1_S3_i'...   done.
GPGPU-Sim PTX: instruction assembly for function '_Z13spmv_jds_nvm6PfPKfPKiS3_S1_S3_i'...   done.
GPGPU-Sim PTX: instruction assembly for function '_Z13spmv_jds_nvm5PfPKfPKiS3_S1_S3_i'...   done.
GPGPU-Sim PTX: instruction assembly for function '_Z8spmv_jdsPfPKfPKiS3_S1_S3_i'...   done.
GPGPU-Sim PTX: instruction assembly for function '_Z13spmv_jds_nvmbPfPKfPKiS3_S1_S3_i'...   done.
GPGPU-Sim PTX: finished parsing EMBEDDED .ptx file spmv.1.sm_70.ptx
GPGPU-Sim PTX: loading globals with explicit initializers... 
GPGPU-Sim PTX: finished loading globals (0 bytes total).
GPGPU-Sim PTX: loading constants with explicit initializers...  done.
GPGPU-Sim PTX: Loading PTXInfo from spmv.1.sm_70.ptx
GPGPU-Sim PTX: Binary info : gmem=71303168, cmem=40000
GPGPU-Sim PTX: Kernel '_Z13spmv_jds_nvmbPfPKfPKiS3_S1_S3_i' : regs=31, lmem=0, smem=0, cmem=412
GPGPU-Sim PTX: Kernel '_Z8spmv_jdsPfPKfPKiS3_S1_S3_i' : regs=31, lmem=0, smem=0, cmem=412
GPGPU-Sim PTX: Kernel '_Z13spmv_jds_nvm5PfPKfPKiS3_S1_S3_i' : regs=32, lmem=0, smem=0, cmem=412
GPGPU-Sim PTX: Kernel '_Z13spmv_jds_nvm6PfPKfPKiS3_S1_S3_i' : regs=32, lmem=0, smem=0, cmem=412
GPGPU-Sim PTX: Kernel '_Z13spmv_jds_nvmiPfPKfPKiS3_S1_S3_i' : regs=32, lmem=0, smem=0, cmem=412
GPGPU-Sim PTX: Kernel '_Z13spmv_jds_nvm4PfPKfPKiS3_S1_S3_i' : regs=32, lmem=0, smem=0, cmem=412
GPGPU-Sim PTX: Kernel '_Z13spmv_jds_nvm3PfPKfPKiS3_S1_S3_i' : regs=32, lmem=0, smem=0, cmem=412
GPGPU-Sim PTX: Kernel '_Z13spmv_jds_nvmgPfPKfPKiS3_S1_S3_i' : regs=32, lmem=0, smem=0, cmem=412
GPGPU-Sim PTX: Kernel '_Z13spmv_jds_nvm2PfPKfPKiS3_S1_S3_i' : regs=31, lmem=0, smem=0, cmem=412
GPGPU-Sim PTX: Kernel '_Z13spmv_jds_nvm1PfPKfPKiS3_S1_S3_i' : regs=31, lmem=0, smem=0, cmem=412
GPGPU-Sim PTX: Kernel '_Z13spmv_jds_nvmuPfPKfPKiS3_S1_S3_i' : regs=31, lmem=0, smem=0, cmem=412
GPGPU-Sim PTX: Kernel '_Z13spmv_jds_nvmoPfPKfPKiS3_S1_S3_i' : regs=31, lmem=0, smem=0, cmem=412
GPGPU-Sim PTX: __cudaRegisterFunction _Z8spmv_jdsPfPKfPKiS3_S1_S3_i : hostFun 0x0x403e2e, fat_cubin_handle = 1
GPGPU-Sim PTX: __cudaRegisterFunction _Z13spmv_jds_nvm5PfPKfPKiS3_S1_S3_i : hostFun 0x0x403c31, fat_cubin_handle = 1
GPGPU-Sim PTX: __cudaRegisterFunction _Z13spmv_jds_nvm6PfPKfPKiS3_S1_S3_i : hostFun 0x0x403a34, fat_cubin_handle = 1
GPGPU-Sim PTX: __cudaRegisterFunction _Z13spmv_jds_nvmiPfPKfPKiS3_S1_S3_i : hostFun 0x0x403837, fat_cubin_handle = 1
GPGPU-Sim PTX: __cudaRegisterFunction _Z13spmv_jds_nvm4PfPKfPKiS3_S1_S3_i : hostFun 0x0x40363a, fat_cubin_handle = 1
GPGPU-Sim PTX: __cudaRegisterFunction _Z13spmv_jds_nvm3PfPKfPKiS3_S1_S3_i : hostFun 0x0x40343d, fat_cubin_handle = 1
GPGPU-Sim PTX: __cudaRegisterFunction _Z13spmv_jds_nvmgPfPKfPKiS3_S1_S3_i : hostFun 0x0x403240, fat_cubin_handle = 1
GPGPU-Sim PTX: __cudaRegisterFunction _Z13spmv_jds_nvm2PfPKfPKiS3_S1_S3_i : hostFun 0x0x403043, fat_cubin_handle = 1
GPGPU-Sim PTX: __cudaRegisterFunction _Z13spmv_jds_nvm1PfPKfPKiS3_S1_S3_i : hostFun 0x0x402e46, fat_cubin_handle = 1
GPGPU-Sim PTX: __cudaRegisterFunction _Z13spmv_jds_nvmuPfPKfPKiS3_S1_S3_i : hostFun 0x0x402c49, fat_cubin_handle = 1
GPGPU-Sim PTX: __cudaRegisterFunction _Z13spmv_jds_nvmoPfPKfPKiS3_S1_S3_i : hostFun 0x0x402a4c, fat_cubin_handle = 1
GPGPU-Sim PTX: in __cudaRegisterTexture:
GPGPU-Sim PTX:   int dim = 1
GPGPU-Sim PTX:   int norm = 0
GPGPU-Sim PTX:   int ext = 0
GPGPU-Sim PTX:   Execution warning: Not finished implementing "void __cudaRegisterTextureInternal(void**, const textureReference*, const void**, const char*, int, int, int, gpgpu_context*)"
GPGPU-Sim PTX: __cudaRegisterVar: hostVar = 0x60e2e0; deviceAddress = jds_ptr_int; deviceName = jds_ptr_int
GPGPU-Sim PTX: __cudaRegisterVar: Registering const memory space of 20000 bytes
GPGPU-Sim PTX registering constant jds_ptr_int (20000 bytes) to name mapping
GPGPU-Sim PTX: __cudaRegisterVar: hostVar = 0x613100; deviceAddress = sh_zcnt_int; deviceName = sh_zcnt_int
GPGPU-Sim PTX: __cudaRegisterVar: Registering const memory space of 20000 bytes
GPGPU-Sim PTX registering constant sh_zcnt_int (20000 bytes) to name mapping
GPGPU-Sim PTX: __cudaRegisterVar: hostVar = 0x617f20; deviceAddress = NVM_log; deviceName = NVM_log
GPGPU-Sim PTX: __cudaRegisterVar: Registering const memory space of 67108864 bytes
GPGPU-Sim PTX registering global NVM_log hostVar to name mapping
GPGPU-Sim PTX: __cudaRegisterVar: hostVar = 0x4617f20; deviceAddress = NVM_flag; deviceName = NVM_flag
GPGPU-Sim PTX: __cudaRegisterVar: Registering const memory space of 4194304 bytes
GPGPU-Sim PTX registering global NVM_flag hostVar to name mapping
/home/pli11/Videos/parboil_benchmark/parboil/benchmarks/spmv/build/nvm_default/spmv -i /home/pli11/Videos/parboil_benchmark/parboil/datasets/spmv/large/input/Dubcova3.mtx.bin,/home/pli11/Videos/parboil_benchmark/parboil/datasets/spmv/large/input/vector.bin -o /home/pli11/Videos/parboil_benchmark/parboil/benchmarks/spmv/run/large/Dubcova3.mtx.out 
CUDA accelerated sparse matrix vector multiplication****
Original version by Li-Wen Chang <lchang20@illinois.edu> and Shengzhao Wu<wu14@illinois.edu>
This version maintained by Chris Rodrigues  ***********
Converting COO to JDS format (146689x146689)
3636649 matrix entries, warp size = 32, row padding align = 1, pack size = 1

Padding data....146720 rows, 4585 groups
Allocating data space: 3637664 entries (0.027903% padding)
Finished converting.
JDS format has 146720 columns, 49 rows.
nz_count_len = 4585
GPGPU-Sim PTX: cudaMemcpyToSymbol: symbol = 0x60e2e0
GPGPU-Sim PTX: starting gpgpu_ptx_sim_memcpy_symbol with hostVar 0x0x60e2e0
GPGPU-Sim PTX: gpgpu_ptx_sim_memcpy_symbol: Found PTX symbol w/ hostVar=0x60e2e0
GPGPU-Sim PTX: gpgpu_ptx_sim_memcpy_symbol: copying const memory 200 bytes  to  symbol jds_ptr_int+0 @0x180 ...
GPGPU-Sim PTX: cudaMemcpyToSymbol: symbol = 0x613100
GPGPU-Sim PTX: starting gpgpu_ptx_sim_memcpy_symbol with hostVar 0x0x613100
GPGPU-Sim PTX: gpgpu_ptx_sim_memcpy_symbol: Found PTX symbol w/ hostVar=0x613100
GPGPU-Sim PTX: gpgpu_ptx_sim_memcpy_symbol: copying const memory 18340 bytes  to  symbol sh_zcnt_int+0 @0x5000 ...
GPGPU-Sim: synchronize waiting for inactive GPU simulation
GPGPU-Sim API: Stream Manager State
GPGPU-Sim: detected inactive GPU simulation thread
event update
GPGPU-Sim: synchronize waiting for inactive GPU simulation
GPGPU-Sim API: Stream Manager State
GPGPU-Sim: detected inactive GPU simulation thread
GPGPU-Sim PTX: Setting up arguments for 8 bytes starting at 0x7fff6c28d228..
GPGPU-Sim PTX: Setting up arguments for 8 bytes starting at 0x7fff6c28d220..
GPGPU-Sim PTX: Setting up arguments for 8 bytes starting at 0x7fff6c28d218..
GPGPU-Sim PTX: Setting up arguments for 8 bytes starting at 0x7fff6c28d210..
GPGPU-Sim PTX: Setting up arguments for 8 bytes starting at 0x7fff6c28d208..
GPGPU-Sim PTX: Setting up arguments for 8 bytes starting at 0x7fff6c28d200..
GPGPU-Sim PTX: Setting up arguments for 4 bytes starting at 0x7fff6c28d2c0..

GPGPU-Sim PTX: cudaLaunch for 0x0x40363a (mode=performance simulation) on stream 0
GPGPU-Sim PTX: finding reconvergence points for '_Z13spmv_jds_nvm4PfPKfPKiS3_S1_S3_i'...
GPGPU-Sim PTX: Finding dominators for '_Z13spmv_jds_nvm4PfPKfPKiS3_S1_S3_i'...
GPGPU-Sim PTX: Finding immediate dominators for '_Z13spmv_jds_nvm4PfPKfPKiS3_S1_S3_i'...
GPGPU-Sim PTX: Finding postdominators for '_Z13spmv_jds_nvm4PfPKfPKiS3_S1_S3_i'...
GPGPU-Sim PTX: Finding immediate postdominators for '_Z13spmv_jds_nvm4PfPKfPKiS3_S1_S3_i'...
GPGPU-Sim PTX: pre-decoding instructions for '_Z13spmv_jds_nvm4PfPKfPKiS3_S1_S3_i'...
GPGPU-Sim PTX: reconvergence points for _Z13spmv_jds_nvm4PfPKfPKiS3_S1_S3_i...
GPGPU-Sim PTX:  1 (potential) branch divergence @  PC=0x2820 (spmv.1.sm_70.ptx:1704) @%p1 bra BB6_21;
GPGPU-Sim PTX:    immediate post dominator      @  PC=0x2f00 (spmv.1.sm_70.ptx:1986) mov.u32 %r97, %tid.z;
GPGPU-Sim PTX:  2 (potential) branch divergence @  PC=0x28f8 (spmv.1.sm_70.ptx:1740) @%p2 bra BB6_3;
GPGPU-Sim PTX:    immediate post dominator      @  PC=0x2990 (spmv.1.sm_70.ptx:1772) shr.s32 %r36, %r2, 5;
GPGPU-Sim PTX:  3 (potential) branch divergence @  PC=0x2a28 (spmv.1.sm_70.ptx:1791) @%p3 bra BB6_4;
GPGPU-Sim PTX:    immediate post dominator      @  PC=0x2e98 (spmv.1.sm_70.ptx:1963) fma.rn.f32 %f42, %f51, %f52, %f49;
GPGPU-Sim PTX:  4 (potential) branch divergence @  PC=0x2a80 (spmv.1.sm_70.ptx:1803) @%p4 bra BB6_6;
GPGPU-Sim PTX:    immediate post dominator      @  PC=0x2e88 (spmv.1.sm_70.ptx:1959) ld.global.f32 %f51, [%rd140];
GPGPU-Sim PTX:  5 (potential) branch divergence @  PC=0x2ab0 (spmv.1.sm_70.ptx:1810) @%p5 bra BB6_8;
GPGPU-Sim PTX:    immediate post dominator      @  PC=0x2cc8 (spmv.1.sm_70.ptx:1898) setp.lt.u32%p8, %r44, 4;
GPGPU-Sim PTX:  6 (potential) branch divergence @  PC=0x2ac8 (spmv.1.sm_70.ptx:1814) @%p6 bra BB6_10;
GPGPU-Sim PTX:    immediate post dominator      @  PC=0x2c38 (spmv.1.sm_70.ptx:1878) mul.wide.s32 %rd84, %r114, 4;
GPGPU-Sim PTX:  7 (potential) branch divergence @  PC=0x2ad0 (spmv.1.sm_70.ptx:1815) bra.uni BB6_11;
GPGPU-Sim PTX:    immediate post dominator      @  PC=0x2b30 (spmv.1.sm_70.ptx:1837) setp.eq.s32%p7, %r45, 2;
GPGPU-Sim PTX:  8 (potential) branch divergence @  PC=0x2ae0 (spmv.1.sm_70.ptx:1819) bra.uni BB6_15;
GPGPU-Sim PTX:    immediate post dominator      @  PC=0x2c38 (spmv.1.sm_70.ptx:1878) mul.wide.s32 %rd84, %r114, 4;
GPGPU-Sim PTX:  9 (potential) branch divergence @  PC=0x2af0 (spmv.1.sm_70.ptx:1823) bra.uni BB6_20;
GPGPU-Sim PTX:    immediate post dominator      @  PC=0x2e98 (spmv.1.sm_70.ptx:1963) fma.rn.f32 %f42, %f51, %f52, %f49;
GPGPU-Sim PTX: 10 (potential) branch divergence @  PC=0x2b08 (spmv.1.sm_70.ptx:1828) bra.uni BB6_19;
GPGPU-Sim PTX:    immediate post dominator      @  PC=0x2e88 (spmv.1.sm_70.ptx:1959) ld.global.f32 %f51, [%rd140];
GPGPU-Sim PTX: 11 (potential) branch divergence @  PC=0x2b28 (spmv.1.sm_70.ptx:1834) bra.uni BB6_16;
GPGPU-Sim PTX:    immediate post dominator      @  PC=0x2cc8 (spmv.1.sm_70.ptx:1898) setp.lt.u32%p8, %r44, 4;
GPGPU-Sim PTX: 12 (potential) branch divergence @  PC=0x2b40 (spmv.1.sm_70.ptx:1839) @%p7 bra BB6_12;
GPGPU-Sim PTX:    immediate post dominator      @  PC=0x2bc0 (spmv.1.sm_70.ptx:1861) mul.wide.u32 %rd75, %r113, 4;
GPGPU-Sim PTX: 13 (potential) branch divergence @  PC=0x2b48 (spmv.1.sm_70.ptx:1840) bra.uni BB6_13;
GPGPU-Sim PTX:    immediate post dominator      @  PC=0x2b60 (spmv.1.sm_70.ptx:1847) ld.global.f32 %f24, [%rd2];
GPGPU-Sim PTX: 14 (potential) branch divergence @  PC=0x2b58 (spmv.1.sm_70.ptx:1844) bra.uni BB6_14;
GPGPU-Sim PTX:    immediate post dominator      @  PC=0x2bc0 (spmv.1.sm_70.ptx:1861) mul.wide.u32 %rd75, %r113, 4;
GPGPU-Sim PTX: 15 (potential) branch divergence @  PC=0x2cd0 (spmv.1.sm_70.ptx:1899) @%p8 bra BB6_19;
GPGPU-Sim PTX:    immediate post dominator      @  PC=0x2e88 (spmv.1.sm_70.ptx:1959) ld.global.f32 %f51, [%rd140];
GPGPU-Sim PTX: 16 (potential) branch divergence @  PC=0x2e80 (spmv.1.sm_70.ptx:1956) @%p9 bra BB6_18;
GPGPU-Sim PTX:    immediate post dominator      @  PC=0x2e88 (spmv.1.sm_70.ptx:1959) ld.global.f32 %f51, [%rd140];
GPGPU-Sim PTX: 17 (potential) branch divergence @  PC=0x2f48 (spmv.1.sm_70.ptx:1995) @%p10 bra BB6_23;
GPGPU-Sim PTX:    immediate post dominator      @  PC=0x2fe8 (spmv.1.sm_70.ptx:2028) ret;
GPGPU-Sim PTX: ... end of reconvergence points for _Z13spmv_jds_nvm4PfPKfPKiS3_S1_S3_i
GPGPU-Sim PTX: ... done pre-decoding instructions for '_Z13spmv_jds_nvm4PfPKfPKiS3_S1_S3_i'.
GPGPU-Sim PTX: pushing kernel '_Z13spmv_jds_nvm4PfPKfPKiS3_S1_S3_i' to stream 0, gridDim= (765,1,1) blockDim = (192,1,1) 
GPGPU-Sim uArch: Shader 0 bind to kernel 1 '_Z13spmv_jds_nvm4PfPKfPKiS3_S1_S3_i'
GPGPU-Sim uArch: CTA/core = 10, limited by: threads regs
GPGPU-Sim: Reconfigure L1 cache to 128KB
GPGPU-Sim uArch: Shader 1 bind to kernel 1 '_Z13spmv_jds_nvm4PfPKfPKiS3_S1_S3_i'
GPGPU-Sim uArch: Shader 2 bind to kernel 1 '_Z13spmv_jds_nvm4PfPKfPKiS3_S1_S3_i'
GPGPU-Sim uArch: Shader 3 bind to kernel 1 '_Z13spmv_jds_nvm4PfPKfPKiS3_S1_S3_i'
GPGPU-Sim uArch: Shader 4 bind to kernel 1 '_Z13spmv_jds_nvm4PfPKfPKiS3_S1_S3_i'
GPGPU-Sim uArch: Shader 5 bind to kernel 1 '_Z13spmv_jds_nvm4PfPKfPKiS3_S1_S3_i'
GPGPU-Sim uArch: Shader 6 bind to kernel 1 '_Z13spmv_jds_nvm4PfPKfPKiS3_S1_S3_i'
GPGPU-Sim uArch: Shader 7 bind to kernel 1 '_Z13spmv_jds_nvm4PfPKfPKiS3_S1_S3_i'
GPGPU-Sim uArch: Shader 8 bind to kernel 1 '_Z13spmv_jds_nvm4PfPKfPKiS3_S1_S3_i'
GPGPU-Sim uArch: Shader 9 bind to kernel 1 '_Z13spmv_jds_nvm4PfPKfPKiS3_S1_S3_i'
GPGPU-Sim uArch: Shader 10 bind to kernel 1 '_Z13spmv_jds_nvm4PfPKfPKiS3_S1_S3_i'
GPGPU-Sim uArch: Shader 11 bind to kernel 1 '_Z13spmv_jds_nvm4PfPKfPKiS3_S1_S3_i'
GPGPU-Sim uArch: Shader 12 bind to kernel 1 '_Z13spmv_jds_nvm4PfPKfPKiS3_S1_S3_i'
GPGPU-Sim uArch: Shader 13 bind to kernel 1 '_Z13spmv_jds_nvm4PfPKfPKiS3_S1_S3_i'
GPGPU-Sim uArch: Shader 14 bind to kernel 1 '_Z13spmv_jds_nvm4PfPKfPKiS3_S1_S3_i'
GPGPU-Sim uArch: Shader 15 bind to kernel 1 '_Z13spmv_jds_nvm4PfPKfPKiS3_S1_S3_i'
GPGPU-Sim uArch: Shader 16 bind to kernel 1 '_Z13spmv_jds_nvm4PfPKfPKiS3_S1_S3_i'
GPGPU-Sim uArch: Shader 17 bind to kernel 1 '_Z13spmv_jds_nvm4PfPKfPKiS3_S1_S3_i'
GPGPU-Sim uArch: Shader 18 bind to kernel 1 '_Z13spmv_jds_nvm4PfPKfPKiS3_S1_S3_i'
GPGPU-Sim uArch: Shader 19 bind to kernel 1 '_Z13spmv_jds_nvm4PfPKfPKiS3_S1_S3_i'
GPGPU-Sim uArch: Shader 20 bind to kernel 1 '_Z13spmv_jds_nvm4PfPKfPKiS3_S1_S3_i'
GPGPU-Sim uArch: Shader 21 bind to kernel 1 '_Z13spmv_jds_nvm4PfPKfPKiS3_S1_S3_i'
GPGPU-Sim uArch: Shader 22 bind to kernel 1 '_Z13spmv_jds_nvm4PfPKfPKiS3_S1_S3_i'
GPGPU-Sim uArch: Shader 23 bind to kernel 1 '_Z13spmv_jds_nvm4PfPKfPKiS3_S1_S3_i'
GPGPU-Sim uArch: Shader 24 bind to kernel 1 '_Z13spmv_jds_nvm4PfPKfPKiS3_S1_S3_i'
GPGPU-Sim uArch: Shader 25 bind to kernel 1 '_Z13spmv_jds_nvm4PfPKfPKiS3_S1_S3_i'
GPGPU-Sim uArch: Shader 26 bind to kernel 1 '_Z13spmv_jds_nvm4PfPKfPKiS3_S1_S3_i'
GPGPU-Sim uArch: Shader 27 bind to kernel 1 '_Z13spmv_jds_nvm4PfPKfPKiS3_S1_S3_i'
GPGPU-Sim uArch: Shader 28 bind to kernel 1 '_Z13spmv_jds_nvm4PfPKfPKiS3_S1_S3_i'
GPGPU-Sim uArch: Shader 29 bind to kernel 1 '_Z13spmv_jds_nvm4PfPKfPKiS3_S1_S3_i'
GPGPU-Sim uArch: Shader 30 bind to kernel 1 '_Z13spmv_jds_nvm4PfPKfPKiS3_S1_S3_i'
GPGPU-Sim uArch: Shader 31 bind to kernel 1 '_Z13spmv_jds_nvm4PfPKfPKiS3_S1_S3_i'
GPGPU-Sim uArch: Shader 32 bind to kernel 1 '_Z13spmv_jds_nvm4PfPKfPKiS3_S1_S3_i'
GPGPU-Sim uArch: Shader 33 bind to kernel 1 '_Z13spmv_jds_nvm4PfPKfPKiS3_S1_S3_i'
GPGPU-Sim uArch: Shader 34 bind to kernel 1 '_Z13spmv_jds_nvm4PfPKfPKiS3_S1_S3_i'
GPGPU-Sim uArch: Shader 35 bind to kernel 1 '_Z13spmv_jds_nvm4PfPKfPKiS3_S1_S3_i'
GPGPU-Sim uArch: Shader 36 bind to kernel 1 '_Z13spmv_jds_nvm4PfPKfPKiS3_S1_S3_i'
GPGPU-Sim uArch: Shader 37 bind to kernel 1 '_Z13spmv_jds_nvm4PfPKfPKiS3_S1_S3_i'
GPGPU-Sim uArch: Shader 38 bind to kernel 1 '_Z13spmv_jds_nvm4PfPKfPKiS3_S1_S3_i'
GPGPU-Sim uArch: Shader 39 bind to kernel 1 '_Z13spmv_jds_nvm4PfPKfPKiS3_S1_S3_i'
GPGPU-Sim uArch: Shader 40 bind to kernel 1 '_Z13spmv_jds_nvm4PfPKfPKiS3_S1_S3_i'
GPGPU-Sim uArch: Shader 41 bind to kernel 1 '_Z13spmv_jds_nvm4PfPKfPKiS3_S1_S3_i'
GPGPU-Sim uArch: Shader 42 bind to kernel 1 '_Z13spmv_jds_nvm4PfPKfPKiS3_S1_S3_i'
GPGPU-Sim uArch: Shader 43 bind to kernel 1 '_Z13spmv_jds_nvm4PfPKfPKiS3_S1_S3_i'
GPGPU-Sim uArch: Shader 44 bind to kernel 1 '_Z13spmv_jds_nvm4PfPKfPKiS3_S1_S3_i'
GPGPU-Sim uArch: Shader 45 bind to kernel 1 '_Z13spmv_jds_nvm4PfPKfPKiS3_S1_S3_i'
GPGPU-Sim uArch: Shader 46 bind to kernel 1 '_Z13spmv_jds_nvm4PfPKfPKiS3_S1_S3_i'
GPGPU-Sim uArch: Shader 47 bind to kernel 1 '_Z13spmv_jds_nvm4PfPKfPKiS3_S1_S3_i'
GPGPU-Sim uArch: Shader 48 bind to kernel 1 '_Z13spmv_jds_nvm4PfPKfPKiS3_S1_S3_i'
GPGPU-Sim uArch: Shader 49 bind to kernel 1 '_Z13spmv_jds_nvm4PfPKfPKiS3_S1_S3_i'
GPGPU-Sim uArch: Shader 50 bind to kernel 1 '_Z13spmv_jds_nvm4PfPKfPKiS3_S1_S3_i'
GPGPU-Sim uArch: Shader 51 bind to kernel 1 '_Z13spmv_jds_nvm4PfPKfPKiS3_S1_S3_i'
GPGPU-Sim uArch: Shader 52 bind to kernel 1 '_Z13spmv_jds_nvm4PfPKfPKiS3_S1_S3_i'
GPGPU-Sim uArch: Shader 53 bind to kernel 1 '_Z13spmv_jds_nvm4PfPKfPKiS3_S1_S3_i'
GPGPU-Sim uArch: Shader 54 bind to kernel 1 '_Z13spmv_jds_nvm4PfPKfPKiS3_S1_S3_i'
GPGPU-Sim uArch: Shader 55 bind to kernel 1 '_Z13spmv_jds_nvm4PfPKfPKiS3_S1_S3_i'
GPGPU-Sim uArch: Shader 56 bind to kernel 1 '_Z13spmv_jds_nvm4PfPKfPKiS3_S1_S3_i'
GPGPU-Sim uArch: Shader 57 bind to kernel 1 '_Z13spmv_jds_nvm4PfPKfPKiS3_S1_S3_i'
GPGPU-Sim uArch: Shader 58 bind to kernel 1 '_Z13spmv_jds_nvm4PfPKfPKiS3_S1_S3_i'
GPGPU-Sim uArch: Shader 59 bind to kernel 1 '_Z13spmv_jds_nvm4PfPKfPKiS3_S1_S3_i'
GPGPU-Sim uArch: Shader 60 bind to kernel 1 '_Z13spmv_jds_nvm4PfPKfPKiS3_S1_S3_i'
GPGPU-Sim uArch: Shader 61 bind to kernel 1 '_Z13spmv_jds_nvm4PfPKfPKiS3_S1_S3_i'
GPGPU-Sim uArch: Shader 62 bind to kernel 1 '_Z13spmv_jds_nvm4PfPKfPKiS3_S1_S3_i'
GPGPU-Sim uArch: Shader 63 bind to kernel 1 '_Z13spmv_jds_nvm4PfPKfPKiS3_S1_S3_i'
GPGPU-Sim uArch: Shader 64 bind to kernel 1 '_Z13spmv_jds_nvm4PfPKfPKiS3_S1_S3_i'
GPGPU-Sim uArch: Shader 65 bind to kernel 1 '_Z13spmv_jds_nvm4PfPKfPKiS3_S1_S3_i'
GPGPU-Sim uArch: Shader 66 bind to kernel 1 '_Z13spmv_jds_nvm4PfPKfPKiS3_S1_S3_i'
GPGPU-Sim uArch: Shader 67 bind to kernel 1 '_Z13spmv_jds_nvm4PfPKfPKiS3_S1_S3_i'
GPGPU-Sim uArch: Shader 68 bind to kernel 1 '_Z13spmv_jds_nvm4PfPKfPKiS3_S1_S3_i'
GPGPU-Sim uArch: Shader 69 bind to kernel 1 '_Z13spmv_jds_nvm4PfPKfPKiS3_S1_S3_i'
GPGPU-Sim uArch: Shader 70 bind to kernel 1 '_Z13spmv_jds_nvm4PfPKfPKiS3_S1_S3_i'
GPGPU-Sim uArch: Shader 71 bind to kernel 1 '_Z13spmv_jds_nvm4PfPKfPKiS3_S1_S3_i'
GPGPU-Sim uArch: Shader 72 bind to kernel 1 '_Z13spmv_jds_nvm4PfPKfPKiS3_S1_S3_i'
GPGPU-Sim uArch: Shader 73 bind to kernel 1 '_Z13spmv_jds_nvm4PfPKfPKiS3_S1_S3_i'
GPGPU-Sim uArch: Shader 74 bind to kernel 1 '_Z13spmv_jds_nvm4PfPKfPKiS3_S1_S3_i'
GPGPU-Sim uArch: Shader 75 bind to kernel 1 '_Z13spmv_jds_nvm4PfPKfPKiS3_S1_S3_i'
GPGPU-Sim uArch: Shader 76 bind to kernel 1 '_Z13spmv_jds_nvm4PfPKfPKiS3_S1_S3_i'
GPGPU-Sim uArch: Shader 77 bind to kernel 1 '_Z13spmv_jds_nvm4PfPKfPKiS3_S1_S3_i'
GPGPU-Sim uArch: Shader 78 bind to kernel 1 '_Z13spmv_jds_nvm4PfPKfPKiS3_S1_S3_i'
GPGPU-Sim uArch: Shader 79 bind to kernel 1 '_Z13spmv_jds_nvm4PfPKfPKiS3_S1_S3_i'
kernel_name = _Z13spmv_jds_nvm4PfPKfPKiS3_S1_S3_i 
kernel_launch_uid = 1 
gpu_sim_cycle = 89832
gpu_sim_insn = 45998465
gpu_ipc =     512.0499
gpu_tot_sim_cycle = 89832
gpu_tot_sim_insn = 45998465
gpu_tot_ipc =     512.0499
gpu_tot_issued_cta = 765
gpu_occupancy = 86.9600% 
gpu_tot_occupancy = 86.9600% 
max_total_param_size = 0
gpu_stall_dramfull = 2502856
gpu_stall_icnt2sh    = 0
partiton_level_parallism =      17.5216
partiton_level_parallism_total  =      17.5216
partiton_level_parallism_util =      19.3924
partiton_level_parallism_util_total  =      19.3924
L2_BW  =     629.6908 GB/Sec
L2_BW_total  =     629.6908 GB/Sec
gpu_total_sim_rate=60286
############## bottleneck_stats #############
cycles: core 89832, icnt 89832, l2 89832, dram 67453
gpu_ipc	512.050
gpu_tot_issued_cta = 765, average cycles = 117
n_dram_writes	 0, n_dram_reads	 0
n_GLOBAL_ACC_R	 735574 
n_LOCAL_ACC_R	 0 
n_CONST_ACC_R	 0 
n_TEXTURE_ACC_R	 0 
n_GLOBAL_ACC_W	 0 
n_LOCAL_ACC_W	 0 
n_L1_WRBK_ACC	 0 
n_L2_WRBK_ACC	 5409 
n_L1_WR_ALLOC_R	 0 
n_L2_WR_ALLOC_R	 0 

n_sm	 80, n_schedulers	 4
scheduler util	0.052	80
L1D data util	0.649	80	0.758	3
L1D tag util	0.220	80	0.267	0
L2 data util	0.569	64	0.578	17
L2 tag util	0.234	64	0.292	10
n_l2_access	 1346541
icnt s2m util	0.000	0	0.000	10	flits per packet: -nan
icnt m2s util	0.000	0	0.000	10	flits per packet: -nan
sum=0
n_mem	 32
dram util	0.350	32	0.356	8

latency_l1_hit:	7652672, num_l1_reqs:	382620
L1 hit latency:	20
latency_l2_hit:	259219598, num_l2_reqs:	296196
L2 hit latency:	875
latency_dram:	1158986083, num_dram_reqs:	772398
DRAM latency:	1500

n_reg	65536, n_smem	98304, n_thread	2048, n_tb	32
reg file	0.938
smem size	0.000
thread slot	0.938
TB slot    	0.312
L1I tag util	0.107	80	0.114	19

n_mem_pipe	1, n_sp_pipe	4, n_sfu_pipe	4
mem pipe util	0.060	80	0.064	19
sp pipe util	0.000	0	0.000	19
sfu pipe util	0.000	0	0.000	19
ldst mem cycle	0.070	80	0.076	24

smem port	0.000	0

n_reg_bank	16
reg port	0.037	16	0.044	0
L1D tag util	0.220	80	0.267	0
L1D fill util	0.143	80	0.165	3
n_l1d_mshr	4096
L1D mshr util	0.046	80
n_l1d_missq	16
L1D missq util	0.025	80
L1D hit rate	0.242
L1D miss rate	0.707
L1D rsfail rate	0.051
L2 tag util	0.234	64	0.292	10
L2 fill util	0.128	64	0.130	18
n_l2_mshr	192
n_l2_missq	32
L2 mshr util	0.463	64	0.516	14
L2 missq util	0.004	64	0.004	2
L2 hit rate	0.220
L2 miss rate	0.579
L2 rsfail rate	0.201

dram activity	0.582	32	0.597	1

load trans eff	0.605
load trans sz	32.000
load_useful_bytes 28394212, load_transaction_bytes 46928256, icnt_m2s_bytes 0
n_gmem_load_insns 274235, n_gmem_load_accesses 1466508
n_smem_access_insn 0, n_smem_accesses 0

tmp_counter/12	0.320

run 0.004, fetch 0.000, sync 0.227, control 0.000, data 0.759, struct 0.009
############ end_bottleneck_stats #############

========= Core cache stats =========
L1I_cache:
	L1I_total_cache_accesses = 0
	L1I_total_cache_misses = 0
	L1I_total_cache_pending_hits = 0
	L1I_total_cache_reservation_fails = 0
L1D_cache:
	L1D_cache_core[0]: Access = 21654, Miss = 15929, Miss_rate = 0.736, Pending_hits = 0, Reservation_fails = 2301
	L1D_cache_core[1]: Access = 21963, Miss = 15717, Miss_rate = 0.716, Pending_hits = 0, Reservation_fails = 1327
	L1D_cache_core[2]: Access = 22293, Miss = 15840, Miss_rate = 0.711, Pending_hits = 0, Reservation_fails = 443
	L1D_cache_core[3]: Access = 22212, Miss = 16045, Miss_rate = 0.722, Pending_hits = 0, Reservation_fails = 523
	L1D_cache_core[4]: Access = 20632, Miss = 14928, Miss_rate = 0.724, Pending_hits = 0, Reservation_fails = 418
	L1D_cache_core[5]: Access = 20652, Miss = 15111, Miss_rate = 0.732, Pending_hits = 0, Reservation_fails = 2210
	L1D_cache_core[6]: Access = 20431, Miss = 14763, Miss_rate = 0.723, Pending_hits = 0, Reservation_fails = 1432
	L1D_cache_core[7]: Access = 20483, Miss = 14944, Miss_rate = 0.730, Pending_hits = 0, Reservation_fails = 1141
	L1D_cache_core[8]: Access = 20570, Miss = 15196, Miss_rate = 0.739, Pending_hits = 0, Reservation_fails = 1985
	L1D_cache_core[9]: Access = 20469, Miss = 14472, Miss_rate = 0.707, Pending_hits = 0, Reservation_fails = 812
	L1D_cache_core[10]: Access = 20356, Miss = 14589, Miss_rate = 0.717, Pending_hits = 0, Reservation_fails = 1621
	L1D_cache_core[11]: Access = 20420, Miss = 15051, Miss_rate = 0.737, Pending_hits = 0, Reservation_fails = 383
	L1D_cache_core[12]: Access = 21225, Miss = 15509, Miss_rate = 0.731, Pending_hits = 0, Reservation_fails = 730
	L1D_cache_core[13]: Access = 21628, Miss = 15699, Miss_rate = 0.726, Pending_hits = 0, Reservation_fails = 856
	L1D_cache_core[14]: Access = 20492, Miss = 14792, Miss_rate = 0.722, Pending_hits = 0, Reservation_fails = 2006
	L1D_cache_core[15]: Access = 19749, Miss = 14274, Miss_rate = 0.723, Pending_hits = 0, Reservation_fails = 996
	L1D_cache_core[16]: Access = 19745, Miss = 14782, Miss_rate = 0.749, Pending_hits = 0, Reservation_fails = 1303
	L1D_cache_core[17]: Access = 19886, Miss = 14576, Miss_rate = 0.733, Pending_hits = 0, Reservation_fails = 852
	L1D_cache_core[18]: Access = 19977, Miss = 14600, Miss_rate = 0.731, Pending_hits = 0, Reservation_fails = 805
	L1D_cache_core[19]: Access = 20434, Miss = 15057, Miss_rate = 0.737, Pending_hits = 0, Reservation_fails = 1327
	L1D_cache_core[20]: Access = 20248, Miss = 14791, Miss_rate = 0.730, Pending_hits = 0, Reservation_fails = 484
	L1D_cache_core[21]: Access = 19987, Miss = 14952, Miss_rate = 0.748, Pending_hits = 0, Reservation_fails = 1343
	L1D_cache_core[22]: Access = 19463, Miss = 14422, Miss_rate = 0.741, Pending_hits = 0, Reservation_fails = 1125
	L1D_cache_core[23]: Access = 18554, Miss = 13662, Miss_rate = 0.736, Pending_hits = 0, Reservation_fails = 495
	L1D_cache_core[24]: Access = 18447, Miss = 13694, Miss_rate = 0.742, Pending_hits = 0, Reservation_fails = 177
	L1D_cache_core[25]: Access = 18662, Miss = 13828, Miss_rate = 0.741, Pending_hits = 0, Reservation_fails = 1446
	L1D_cache_core[26]: Access = 18532, Miss = 13418, Miss_rate = 0.724, Pending_hits = 0, Reservation_fails = 327
	L1D_cache_core[27]: Access = 18478, Miss = 13747, Miss_rate = 0.744, Pending_hits = 0, Reservation_fails = 1565
	L1D_cache_core[28]: Access = 18492, Miss = 13868, Miss_rate = 0.750, Pending_hits = 0, Reservation_fails = 621
	L1D_cache_core[29]: Access = 18677, Miss = 13575, Miss_rate = 0.727, Pending_hits = 0, Reservation_fails = 799
	L1D_cache_core[30]: Access = 18457, Miss = 13651, Miss_rate = 0.740, Pending_hits = 0, Reservation_fails = 1033
	L1D_cache_core[31]: Access = 18475, Miss = 13669, Miss_rate = 0.740, Pending_hits = 0, Reservation_fails = 1537
	L1D_cache_core[32]: Access = 18865, Miss = 14127, Miss_rate = 0.749, Pending_hits = 0, Reservation_fails = 1280
	L1D_cache_core[33]: Access = 18358, Miss = 14804, Miss_rate = 0.806, Pending_hits = 0, Reservation_fails = 1073
	L1D_cache_core[34]: Access = 18544, Miss = 14655, Miss_rate = 0.790, Pending_hits = 0, Reservation_fails = 471
	L1D_cache_core[35]: Access = 18916, Miss = 14962, Miss_rate = 0.791, Pending_hits = 0, Reservation_fails = 1438
	L1D_cache_core[36]: Access = 18245, Miss = 14635, Miss_rate = 0.802, Pending_hits = 0, Reservation_fails = 814
	L1D_cache_core[37]: Access = 18779, Miss = 14907, Miss_rate = 0.794, Pending_hits = 0, Reservation_fails = 342
	L1D_cache_core[38]: Access = 18518, Miss = 14622, Miss_rate = 0.790, Pending_hits = 0, Reservation_fails = 1382
	L1D_cache_core[39]: Access = 18672, Miss = 14737, Miss_rate = 0.789, Pending_hits = 0, Reservation_fails = 523
	L1D_cache_core[40]: Access = 18655, Miss = 15016, Miss_rate = 0.805, Pending_hits = 0, Reservation_fails = 479
	L1D_cache_core[41]: Access = 18509, Miss = 14777, Miss_rate = 0.798, Pending_hits = 0, Reservation_fails = 1177
	L1D_cache_core[42]: Access = 18789, Miss = 14965, Miss_rate = 0.796, Pending_hits = 0, Reservation_fails = 499
	L1D_cache_core[43]: Access = 18493, Miss = 14837, Miss_rate = 0.802, Pending_hits = 0, Reservation_fails = 1331
	L1D_cache_core[44]: Access = 17569, Miss = 14184, Miss_rate = 0.807, Pending_hits = 0, Reservation_fails = 804
	L1D_cache_core[45]: Access = 17546, Miss = 12723, Miss_rate = 0.725, Pending_hits = 0, Reservation_fails = 482
	L1D_cache_core[46]: Access = 17707, Miss = 13176, Miss_rate = 0.744, Pending_hits = 0, Reservation_fails = 1971
	L1D_cache_core[47]: Access = 17495, Miss = 13146, Miss_rate = 0.751, Pending_hits = 0, Reservation_fails = 847
	L1D_cache_core[48]: Access = 18038, Miss = 13338, Miss_rate = 0.739, Pending_hits = 0, Reservation_fails = 884
	L1D_cache_core[49]: Access = 17740, Miss = 12874, Miss_rate = 0.726, Pending_hits = 0, Reservation_fails = 1481
	L1D_cache_core[50]: Access = 17652, Miss = 12762, Miss_rate = 0.723, Pending_hits = 0, Reservation_fails = 1044
	L1D_cache_core[51]: Access = 17637, Miss = 13154, Miss_rate = 0.746, Pending_hits = 0, Reservation_fails = 1471
	L1D_cache_core[52]: Access = 18023, Miss = 13303, Miss_rate = 0.738, Pending_hits = 0, Reservation_fails = 523
	L1D_cache_core[53]: Access = 17468, Miss = 12808, Miss_rate = 0.733, Pending_hits = 0, Reservation_fails = 892
	L1D_cache_core[54]: Access = 17510, Miss = 13316, Miss_rate = 0.760, Pending_hits = 0, Reservation_fails = 415
	L1D_cache_core[55]: Access = 17407, Miss = 12822, Miss_rate = 0.737, Pending_hits = 0, Reservation_fails = 1910
	L1D_cache_core[56]: Access = 17307, Miss = 12682, Miss_rate = 0.733, Pending_hits = 0, Reservation_fails = 471
	L1D_cache_core[57]: Access = 17816, Miss = 13254, Miss_rate = 0.744, Pending_hits = 0, Reservation_fails = 926
	L1D_cache_core[58]: Access = 17394, Miss = 13027, Miss_rate = 0.749, Pending_hits = 0, Reservation_fails = 461
	L1D_cache_core[59]: Access = 17816, Miss = 13020, Miss_rate = 0.731, Pending_hits = 0, Reservation_fails = 482
	L1D_cache_core[60]: Access = 17855, Miss = 13269, Miss_rate = 0.743, Pending_hits = 0, Reservation_fails = 2478
	L1D_cache_core[61]: Access = 17941, Miss = 13287, Miss_rate = 0.741, Pending_hits = 0, Reservation_fails = 414
	L1D_cache_core[62]: Access = 17604, Miss = 13199, Miss_rate = 0.750, Pending_hits = 0, Reservation_fails = 590
	L1D_cache_core[63]: Access = 17778, Miss = 13312, Miss_rate = 0.749, Pending_hits = 0, Reservation_fails = 517
	L1D_cache_core[64]: Access = 17818, Miss = 13232, Miss_rate = 0.743, Pending_hits = 0, Reservation_fails = 1010
	L1D_cache_core[65]: Access = 17921, Miss = 12991, Miss_rate = 0.725, Pending_hits = 0, Reservation_fails = 1332
	L1D_cache_core[66]: Access = 17411, Miss = 12787, Miss_rate = 0.734, Pending_hits = 0, Reservation_fails = 734
	L1D_cache_core[67]: Access = 17759, Miss = 13324, Miss_rate = 0.750, Pending_hits = 0, Reservation_fails = 801
	L1D_cache_core[68]: Access = 17620, Miss = 13139, Miss_rate = 0.746, Pending_hits = 0, Reservation_fails = 957
	L1D_cache_core[69]: Access = 17706, Miss = 13314, Miss_rate = 0.752, Pending_hits = 0, Reservation_fails = 929
	L1D_cache_core[70]: Access = 17706, Miss = 12987, Miss_rate = 0.733, Pending_hits = 0, Reservation_fails = 1430
	L1D_cache_core[71]: Access = 17431, Miss = 12884, Miss_rate = 0.739, Pending_hits = 0, Reservation_fails = 950
	L1D_cache_core[72]: Access = 17542, Miss = 12985, Miss_rate = 0.740, Pending_hits = 0, Reservation_fails = 996
	L1D_cache_core[73]: Access = 17415, Miss = 12580, Miss_rate = 0.722, Pending_hits = 0, Reservation_fails = 1033
	L1D_cache_core[74]: Access = 17432, Miss = 13037, Miss_rate = 0.748, Pending_hits = 0, Reservation_fails = 1781
	L1D_cache_core[75]: Access = 17577, Miss = 13149, Miss_rate = 0.748, Pending_hits = 0, Reservation_fails = 434
	L1D_cache_core[76]: Access = 17279, Miss = 12849, Miss_rate = 0.744, Pending_hits = 0, Reservation_fails = 926
	L1D_cache_core[77]: Access = 17483, Miss = 12876, Miss_rate = 0.736, Pending_hits = 0, Reservation_fails = 976
	L1D_cache_core[78]: Access = 17813, Miss = 13041, Miss_rate = 0.732, Pending_hits = 0, Reservation_fails = 1424
	L1D_cache_core[79]: Access = 17723, Miss = 13379, Miss_rate = 0.755, Pending_hits = 0, Reservation_fails = 1049
	L1D_total_cache_accesses = 1500025
	L1D_total_cache_misses = 1117405
	L1D_total_cache_miss_rate = 0.7449
	L1D_total_cache_pending_hits = 0
	L1D_total_cache_reservation_fails = 81057
	L1D_cache_data_port_util = 0.056
	L1D_cache_fill_port_util = 0.151
L1C_cache:
	L1C_total_cache_accesses = 0
	L1C_total_cache_misses = 0
	L1C_total_cache_pending_hits = 0
	L1C_total_cache_reservation_fails = 0
L1T_cache:
	L1T_total_cache_accesses = 0
	L1T_total_cache_misses = 0
	L1T_total_cache_pending_hits = 0
	L1T_total_cache_reservation_fails = 0

Total_core_cache_stats:
	Total_core_cache_stats_breakdown[GLOBAL_ACC_R][HIT] = 382620
	Total_core_cache_stats_breakdown[GLOBAL_ACC_R][HIT_RESERVED] = 0
	Total_core_cache_stats_breakdown[GLOBAL_ACC_R][MISS] = 961370
	Total_core_cache_stats_breakdown[GLOBAL_ACC_R][RESERVATION_FAIL] = 79900
	Total_core_cache_stats_breakdown[GLOBAL_ACC_R][SECTOR_MISS] = 121812
	Total_core_cache_stats_breakdown[LOCAL_ACC_R][HIT] = 0
	Total_core_cache_stats_breakdown[LOCAL_ACC_R][HIT_RESERVED] = 0
	Total_core_cache_stats_breakdown[LOCAL_ACC_R][MISS] = 0
	Total_core_cache_stats_breakdown[LOCAL_ACC_R][RESERVATION_FAIL] = 0
	Total_core_cache_stats_breakdown[LOCAL_ACC_R][SECTOR_MISS] = 0
	Total_core_cache_stats_breakdown[CONST_ACC_R][HIT] = 0
	Total_core_cache_stats_breakdown[CONST_ACC_R][HIT_RESERVED] = 0
	Total_core_cache_stats_breakdown[CONST_ACC_R][MISS] = 0
	Total_core_cache_stats_breakdown[CONST_ACC_R][RESERVATION_FAIL] = 0
	Total_core_cache_stats_breakdown[CONST_ACC_R][SECTOR_MISS] = 0
	Total_core_cache_stats_breakdown[TEXTURE_ACC_R][HIT] = 0
	Total_core_cache_stats_breakdown[TEXTURE_ACC_R][HIT_RESERVED] = 0
	Total_core_cache_stats_breakdown[TEXTURE_ACC_R][MISS] = 0
	Total_core_cache_stats_breakdown[TEXTURE_ACC_R][RESERVATION_FAIL] = 0
	Total_core_cache_stats_breakdown[TEXTURE_ACC_R][SECTOR_MISS] = 0
	Total_core_cache_stats_breakdown[GLOBAL_ACC_W][HIT] = 0
	Total_core_cache_stats_breakdown[GLOBAL_ACC_W][HIT_RESERVED] = 0
	Total_core_cache_stats_breakdown[GLOBAL_ACC_W][MISS] = 34223
	Total_core_cache_stats_breakdown[GLOBAL_ACC_W][RESERVATION_FAIL] = 1157
	Total_core_cache_stats_breakdown[GLOBAL_ACC_W][SECTOR_MISS] = 0
	Total_core_cache_stats_breakdown[LOCAL_ACC_W][HIT] = 0
	Total_core_cache_stats_breakdown[LOCAL_ACC_W][HIT_RESERVED] = 0
	Total_core_cache_stats_breakdown[LOCAL_ACC_W][MISS] = 0
	Total_core_cache_stats_breakdown[LOCAL_ACC_W][RESERVATION_FAIL] = 0
	Total_core_cache_stats_breakdown[LOCAL_ACC_W][SECTOR_MISS] = 0
	Total_core_cache_stats_breakdown[L1_WRBK_ACC][HIT] = 0
	Total_core_cache_stats_breakdown[L1_WRBK_ACC][HIT_RESERVED] = 0
	Total_core_cache_stats_breakdown[L1_WRBK_ACC][MISS] = 0
	Total_core_cache_stats_breakdown[L1_WRBK_ACC][RESERVATION_FAIL] = 0
	Total_core_cache_stats_breakdown[L1_WRBK_ACC][SECTOR_MISS] = 0
	Total_core_cache_stats_breakdown[L2_WRBK_ACC][HIT] = 0
	Total_core_cache_stats_breakdown[L2_WRBK_ACC][HIT_RESERVED] = 0
	Total_core_cache_stats_breakdown[L2_WRBK_ACC][MISS] = 0
	Total_core_cache_stats_breakdown[L2_WRBK_ACC][RESERVATION_FAIL] = 0
	Total_core_cache_stats_breakdown[L2_WRBK_ACC][SECTOR_MISS] = 0
	Total_core_cache_stats_breakdown[INST_ACC_R][HIT] = 0
	Total_core_cache_stats_breakdown[INST_ACC_R][HIT_RESERVED] = 0
	Total_core_cache_stats_breakdown[INST_ACC_R][MISS] = 0
	Total_core_cache_stats_breakdown[INST_ACC_R][RESERVATION_FAIL] = 0
	Total_core_cache_stats_breakdown[INST_ACC_R][SECTOR_MISS] = 0
	Total_core_cache_stats_breakdown[L1_WR_ALLOC_R][HIT] = 0
	Total_core_cache_stats_breakdown[L1_WR_ALLOC_R][HIT_RESERVED] = 0
	Total_core_cache_stats_breakdown[L1_WR_ALLOC_R][MISS] = 0
	Total_core_cache_stats_breakdown[L1_WR_ALLOC_R][RESERVATION_FAIL] = 0
	Total_core_cache_stats_breakdown[L1_WR_ALLOC_R][SECTOR_MISS] = 0
	Total_core_cache_stats_breakdown[L2_WR_ALLOC_R][HIT] = 0
	Total_core_cache_stats_breakdown[L2_WR_ALLOC_R][HIT_RESERVED] = 0
	Total_core_cache_stats_breakdown[L2_WR_ALLOC_R][MISS] = 0
	Total_core_cache_stats_breakdown[L2_WR_ALLOC_R][RESERVATION_FAIL] = 0
	Total_core_cache_stats_breakdown[L2_WR_ALLOC_R][SECTOR_MISS] = 0
	Total_core_cache_stats_breakdown[GLOBAL_ACC_R][TOTAL_ACCESS] = 1465802
	Total_core_cache_stats_breakdown[GLOBAL_ACC_W][TOTAL_ACCESS] = 34223

Total_core_cache_fail_stats:
	Total_core_cache_fail_stats_breakdown[GLOBAL_ACC_R][MISS_QUEUE_FULL] = 79900
	Total_core_cache_fail_stats_breakdown[GLOBAL_ACC_W][MISS_QUEUE_FULL] = 1157
Shader 0 warp_id issue ditsribution:
warp_id:
0, 1, 2, 3, 4, 5, 6, 7, 8, 9, 10, 11, 12, 13, 14, 15, 16, 17, 18, 19, 20, 21, 22, 23, 24, 25, 26, 27, 28, 29, 30, 31, 32, 33, 34, 35, 36, 37, 38, 39, 40, 41, 42, 43, 44, 45, 46, 47, 48, 49, 50, 51, 52, 53, 54, 55, 56, 57, 58, 59, 
distro:
320, 302, 309, 320, 339, 313, 331, 335, 346, 357, 339, 313, 353, 350, 357, 346, 346, 328, 353, 350, 339, 339, 339, 335, 346, 346, 328, 346, 335, 350, 327, 324, 339, 350, 350, 328, 333, 296, 296, 296, 296, 296, 332, 296, 296, 296, 296, 296, 333, 296, 296, 296, 296, 296, 333, 296, 296, 296, 296, 296, 
gpgpu_n_tot_thrd_icount = 47589152
gpgpu_n_tot_w_icount = 1487161
gpgpu_n_stall_shd_mem = 2760160
gpgpu_n_mem_read_local = 0
gpgpu_n_mem_write_local = 0
gpgpu_n_mem_read_global = 1036892
gpgpu_n_mem_write_global = 537935
gpgpu_n_mem_texture = 0
gpgpu_n_mem_const = 0
gpgpu_n_load_insn  = 8773759
gpgpu_n_store_insn = 493722
gpgpu_n_shmem_insn = 0
gpgpu_n_sstarr_insn = 0
gpgpu_n_tex_insn = 0
gpgpu_n_const_mem_insn = 3010154
gpgpu_n_param_mem_insn = 881280
gpgpu_n_shmem_bkconflict = 0
gpgpu_n_cache_bkconflict = 0
gpgpu_n_intrawarp_mshr_merge = 0
gpgpu_n_cmem_portconflict = 0
gpgpu_stall_shd_mem[c_mem][resource_stall] = 0
gpgpu_stall_shd_mem[s_mem][bk_conf] = 0
gpgpu_stall_shd_mem[gl_mem][resource_stall] = 1252345
gpgpu_stall_shd_mem[gl_mem][coal_stall] = 492836
gpgpu_stall_shd_mem[gl_mem][data_port_stall] = 0
gpu_reg_bank_conflict_stalls = 0
Warp Occupancy Distribution:
Stall:5216146	W0_Idle:43781	W0_Scoreboard:20395836	W1:20248	W2:0	W3:0	W4:0	W5:0	W6:0	W7:0	W8:0	W9:0	W10:0	W11:0	W12:0	W13:0	W14:0	W15:0	W16:0	W17:0	W18:0	W19:0	W20:0	W21:0	W22:0	W23:0	W24:0	W25:0	W26:0	W27:0	W28:0	W29:0	W30:0	W31:0	W32:1469909
single_issue_nums: WS0:382823	WS1:375430	WS2:369960	WS3:361944	
dual_issue_nums: WS0:0	WS1:0	WS2:0	WS3:0	
traffic_breakdown_coretomem[GLOBAL_ACC_R] = 8295136 {8:1036892,}
traffic_breakdown_coretomem[GLOBAL_ACC_W] = 5398616 {8:503712,40:34223,}
traffic_breakdown_memtocore[GLOBAL_ACC_R] = 41006440 {40:1025161,}
traffic_breakdown_memtocore[GLOBAL_ACC_W] = 4290744 {8:536343,}
maxmflatency = 9600 
max_icnt2mem_latency = 7845 
maxmrqlatency = 2044 
max_icnt2sh_latency = 209 
averagemflatency = 2260 
avg_icnt2mem_latency = 1268 
avg_mrq_latency = 46 
avg_icnt2sh_latency = 3 
mrq_lat_table:110013 	78143 	42738 	47514 	84890 	199726 	118554 	49368 	8638 	759 	324 	0 	0 	0 	0 	0 	0 	0 	0 	0 	0 	0 	0 	0 	0 	0 	0 	0 	0 	0 	0 	0 	
dq_lat_table:0 	0 	0 	0 	0 	0 	0 	0 	0 	0 	0 	0 	0 	0 	0 	0 	0 	0 	0 	0 	0 	0 	0 	0 	0 	0 	0 	0 	0 	0 	0 	0 	
mf_lat_table:0 	0 	0 	0 	0 	0 	0 	103111 	114388 	356643 	415634 	274922 	296051 	730 	0 	0 	0 	0 	0 	0 	0 	0 	0 	0 	0 	0 	0 	0 	0 	0 	0 	0 	
icnt2mem_lat_table:0 	6949 	7681 	7739 	439804 	94321 	70763 	107357 	124281 	167942 	191351 	127961 	227852 	0 	0 	0 	0 	0 	0 	0 	0 	0 	0 	0 	
icnt2sh_lat_table:0 	1338667 	153259 	34561 	14690 	12884 	6500 	918 	0 	0 	0 	0 	0 	0 	0 	0 	0 	0 	0 	0 	0 	0 	0 	0 	
mf_lat_pw_table:0 	0 	0 	0 	0 	0 	0 	1 	0 	41 	57 	25 	44 	0 	0 	0 	0 	0 	0 	0 	0 	0 	0 	0 	0 	0 	0 	0 	0 	0 	0 	0 	
maximum concurrent accesses to same row:
dram[0]:        64        64        64        64        64        64        48        40        56        36        44        60        52        48        48        60 
dram[1]:        64        64        64        64        64        64        40        44        44        44        44        56        48        56        56        56 
dram[2]:        64        64        64        64        64        64        40        40        36        48        48        52        52        56        56        56 
dram[3]:        64        64        64        64        64        64        40        52        36        36        48        60        60        52        56        60 
dram[4]:        64        64        64        64        64        64        40        40        44        44        44        52        56        56        56        56 
dram[5]:        64        64        64        64        64        64        40        40        44        32        56        36        52        48        56        56 
dram[6]:        64        64        64        64        64        64        40        40        32        32        40        48        60        40        56        56 
dram[7]:        64        64        64        64        64        64        44        40        40        52        52        40        56        48        60        56 
dram[8]:        64        64        64        64        64        64        44        52        40        40        56        48        52        52        56        60 
dram[9]:        64        64        64        64        64        64        40        44        40        28        52        40        48        52        56        60 
dram[10]:        64        64        64        64        64        64        44        40        36        36        52        44        48        56        60        56 
dram[11]:        64        64        64        64        64        64        40        52        44        48        60        40        48        60        60        56 
dram[12]:        64        64        64        64        64        64        40        40        52        48        52        52        60        52        56        60 
dram[13]:        64        64        64        64        64        64        48        40        36        48        52        48        48        60        60        56 
dram[14]:        64        64        64        64        64        64        40        56        24        28        56        41        48        56        60        56 
dram[15]:        64        64        64        64        64        64        40        40        28        36        40        52        60        56        56        56 
dram[16]:        64        64        64        64        64        64        40        40        36        40        32        48        56        56        60        56 
dram[17]:        64        64        64        64        64        64        40        40        40        36        40        52        57        52        60        56 
dram[18]:        64        64        64        64        64        64        40        40        28        32        52        56        56        48        56        56 
dram[19]:        64        64        64        64        64        64        44        40        44        44        48        52        52        60        60        56 
dram[20]:        64        64        64        64        64        64        40        40        36        52        48        48        48        56        56        56 
dram[21]:        64        64        64        64        64        64        40        33        32        28        44        44        36        56        56        60 
dram[22]:        64        64        64        64        64        64        40        40        32        28        36        40        36        44        56        56 
dram[23]:        64        64        64        64        64        64        40        40        32        36        52        48        48        48        60        56 
dram[24]:        64        64        64        64        64        64        40        60        36        56        48        52        56        36        56        60 
dram[25]:        64        64        64        64        64        64        40        36        36        48        28        48        52        48        60        56 
dram[26]:        64        64        64        64        64        64        44        40        24        36        48        40        52        44        56        56 
dram[27]:        64        64        64        64        64        64        40        36        32        52        52        32        56        52        56        64 
dram[28]:        64        64        64        64        64        64        44        32        36        52        44        36        56        48        56        56 
dram[29]:        64        64        64        64        64        64        40        44        60        40        48        40        52        47        56        56 
dram[30]:        64        64        64        64        64        64        40        48        40        28        48        56        48        48        56        56 
dram[31]:        64        64        64        64        64        64        44        40        44        36        52        52        52        48        56        56 
maximum service time to same row:
dram[0]:     17606     16958     19810     19343     19538     20461     21233     21549     30058     28273     31250     31689     32524     30740     17644     17079 
dram[1]:     17446     17684     18730     19683     19555     19756     20499     21829     30521     29789     30712     31212     31043     31198     17475     17767 
dram[2]:     17497     17579     19200     19852     20112     19674     20532     21597     29150     30901     31176     31663     31441     31618     17547     18804 
dram[3]:     17666     17386     19191     20338     20240     19598     20642     21915     28672     29289     31609     31764     31453     31607     19242     18660 
dram[4]:     17586     18111     19256     19959     20264     20248     20626     21523     28611     29462     31579     31886     31587     31691     17664     18222 
dram[5]:     17999     18156     19676     19811     20627     19084     19844     21264     29981     30584     32188     31202     32389     31056     18068     18048 
dram[6]:     18718     18258     19394     18734     21271     19055     19830     20799     30052     30612     31880     31149     32453     31490     18066     18345 
dram[7]:     18213     17474     19216     19937     20753     19496     19447     21301     29383     29361     31345     31230     31527     31879     18811     18986 
dram[8]:     16879     17584     19248     19297     18952     20328     21479     21400     28684     31302     31154     31666     31293     31874     18659     17703 
dram[9]:     17501     17561     19831     19144     18997     20368     21827     20792     28776     30600     31057     31722     31273     31883     18221     17642 
dram[10]:     17003     18690     19155     19677     18822     21297     21710     21131     29089     30210     30768     32313     31249     32284     18273     18141 
dram[11]:     17503     18165     19152     19123     20663     20224     20649     20709     30034     30518     32316     31037     31820     32777     18762     18300 
dram[12]:     18281     17983     19248     19093     19744     20155     20866     19326     30671     28781     31254     31178     31752     31587     19473     18951 
dram[13]:     18045     17878     18572     19613     19522     20602     20778     19609     29202     29824     31545     30438     31016     31546     18669     19439 
dram[14]:     18060     17318     19325     19459     19495     21601     22577     19662     29490     28668     31799     30010     30631     31113     18678     17733 
dram[15]:     17068     17467     19042     20855     20201     22062     21939     21971     28621     30700     30925     31269     29844     32253     18252     19220 
dram[16]:     16990     17424     19132     19045     19523     21513     22080     20549     29427     29857     31216     31277     31281     32257     17458     18721 
dram[17]:     17093     18799     18167     18584     19573     20173     19377     20585     29973     30297     31280     31678     30949     32533     17469     19495 
dram[18]:     17550     18160     18660     18610     19835     19679     19584     20227     30501     29508     32073     31277     31635     31894     17594     18817 
dram[19]:     17122     17996     18234     19673     20406     20143     19328     21996     30264     29917     31735     31810     31156     32253     18345     18842 
dram[20]:     17355     18176     19438     19670     20091     20226     21878     21938     30957     30865     31537     32251     31007     32509     18305     18720 
dram[21]:     18647     18123     19043     19724     19547     20194     22528     20737     31234     29286     31667     31509     31716     31514     18694     18063 
dram[22]:     17644     18018     19197     19150     19649     20218     22621     20660     29860     29070     31578     31479     31863     31510     18309     17627 
dram[23]:     18145     17490     19820     18575     20013     20094     20494     20646     28748     29215     31591     30989     31657     31691     18689     18072 
dram[24]:     17414     17507     19876     18650     19135     20090     20479     19389     28739     29390     31514     31056     31718     31562     17712     18839 
dram[25]:     17495     17480     20306     18571     19504     20057     20556     19284     29331     30519     31197     30964     31854     31300     18644     18734 
dram[26]:     16825     18144     19956     19187     18864     20629     20800     19950     29845     31298     30549     32288     32465     32096     18059     19408 
dram[27]:     18597     17482     20452     19182     20609     20154     21376     20524     30507     29125     32144     31686     32974     31615     19275     18144 
dram[28]:     18623     18642     19685     18520     20047     19531     21334     20047     30924     28423     31260     31582     33074     30699     19554     18197 
dram[29]:     18161     17654     19322     18750     19634     19640     20776     20207     29748     28591     31080     30001     30498     31273     18843     18629 
dram[30]:     18262     17540     19719     19630     20168     19591     20862     20070     29992     28566     31169     29999     30632     31431     18910     17700 
dram[31]:     17356     17540     19646     19689     20731     19533     23173     21076     30514     29290     32667     29699     31671     31254     17445     17704 
average row accesses per activate:
dram[0]:  7.744898  7.172093  7.922280  7.757576  8.384181  8.021390  7.702127  7.400000  7.382199  7.244898  7.849162  7.322917  7.594594  7.276596  8.219653  8.479042 
dram[1]:  7.380952  7.674877  8.286487  7.683417  7.915344  8.374302  7.726316  7.593909  7.726776  7.614973  7.587912  7.693989  7.366492  8.738853  9.281046  8.184971 
dram[2]:  7.786458  6.901786  7.330143  7.184834  8.921687  7.706806  7.340000  7.248756  7.931035  7.354167  6.621359  7.154639  7.387978  7.369565  8.886076  8.585366 
dram[3]:  7.368932  7.110599  7.311005  8.021164  7.984043  7.530928  7.784946  6.853774  7.619565  6.532110  7.108809  6.729469  7.502762  7.216931  8.955414  8.612122 
dram[4]:  7.393204  7.943590  7.140187  7.362319  6.939535  7.956989  7.759162  6.542222  7.355670  6.597222  7.127551  7.464865  8.287425  6.979592  8.574850  8.662577 
dram[5]:  7.510000  6.510121  7.618091  7.917099  8.705882  7.711340  7.430769  7.019231  7.322917  6.950495  6.834951  7.367021  7.880000  7.207447  9.187097  8.609756 
dram[6]:  8.120879  6.695833  7.544554  8.395604  7.956757  7.873016  6.816901  6.850467  7.238342  6.567442  7.356757  6.928934  7.311475  7.015707  8.815287  8.137931 
dram[7]:  8.951807  7.262444  8.763006  7.184834  7.638298  7.492386  7.500000  7.102941  7.357895  7.312500  7.212435  7.167539  7.594444  7.463687  8.869565  8.284023 
dram[8]:  8.576271  6.392000  7.420290  7.383495  8.543859  7.632653  7.723404  7.474748  7.606383  7.220000  7.763736  7.567567  7.726257  8.319018  9.088608  9.228758 
dram[9]:  7.421568  7.140909  7.449761  8.266666  7.472907  8.271187  7.242718  7.661376  7.162561  6.901961  7.295337  7.661111  7.450550  7.494444  8.000000  8.378698 
dram[10]:  6.796380  7.119266  7.150943  7.157895  7.717278  7.924325  8.467836  6.985646  7.051021  6.868293  7.591160  7.747191  7.137566  7.502762  8.658537  8.830189 
dram[11]:  7.280788  8.086487  7.084112  7.957895  7.331683  7.294117  7.113300  7.287129  7.811111  6.893204  6.596154  6.984772  6.709360  7.183246  7.977654  8.911392 
dram[12]:  7.967742  7.816327  7.733333  7.373206  7.936170  7.515152  6.740741  7.200000  7.329897  7.160000  6.837439  7.065327  8.083333  7.453552  8.196532  8.987342 
dram[13]:  7.671717  8.640000  8.241936  7.755102  7.978495  7.494949  7.414141  7.300000  7.178218  7.531915  7.365079  6.639423  7.061224  7.794286  8.389221  7.960894 
dram[14]:  8.163043  8.175824  7.854167  7.339806  7.469388  7.530612  7.267327  7.741935  6.362832  6.798029  7.106599  6.795000  6.925000  7.678161  8.530121  8.645963 
dram[15]:  8.536723  7.578680  7.814433  7.620000  8.453488  7.913979  7.067961  8.043715  7.190955  7.492064  6.838235  7.478261  7.260638  7.020942  8.366864  9.266666 
dram[16]:  8.032433  8.306011  7.835897  7.797980  7.380000  8.174864  7.786096  7.254902  6.917073  7.697297  6.718447  7.404255  7.752809  7.750000  8.136364  8.887500 
dram[17]:  7.862434  7.431373  8.005263  7.794872  9.048780  8.288889  7.320000  7.203884  7.769231  7.252525  7.319372  7.578378  8.309524  7.837079  8.164773  8.785276 
dram[18]:  8.074866  7.307693  7.222749  8.106383  8.241758  7.873684  7.360000  7.582474  6.868932  6.774038  6.759615  6.769608  7.839080  6.737864  9.019108  8.871165 
dram[19]:  8.010753  7.835052  8.291209  7.760204  7.460000  8.182321  8.365714  6.642202  7.163265  7.183673  7.189474  6.751220  8.909091  7.151042  9.342105  7.844444 
dram[20]:  7.800000  6.834081  7.796954  7.453659  7.497488  7.155660  6.851852  7.184466  6.937198  6.826087  6.790244  6.843137  7.886364  7.210257  9.194805  8.277456 
dram[21]:  7.666667  7.774359  7.778894  7.938461  8.131868  7.712821  6.967136  6.909524  7.009709  7.756906  6.776699  7.685393  7.909605  7.535912  8.520710  9.536913 
dram[22]:  8.163935  7.813471  7.246377  7.512315  7.431472  8.500000  7.827957  6.722222  6.641510  6.641148  6.650486  6.874372  8.069767  7.406593  8.331361  8.585366 
dram[23]:  7.507538  8.195652  8.126985  8.610169  8.154696  7.502488  6.909091  7.812834  6.790244  8.184971  7.437838  7.213542  7.387097  7.268817  8.948718  9.449664 
dram[24]:  8.150537  7.562189  7.673367  8.236559  8.335196  7.673470  7.768421  7.588542  7.237113  7.276382  7.158974  7.449736  7.502703  7.061224  7.865922  9.820689 
dram[25]:  8.052631  8.127660  8.327868  7.478261  7.537688  7.066667  7.705263  7.028708  7.160804  7.494737  6.852941  6.788462  7.982456  7.060606  9.289474  8.308140 
dram[26]:  8.140540  7.364078  7.717172  7.269231  8.180327  7.004807  7.530612  7.663158  6.679426  7.036082  7.434783  7.535135  7.953217  7.246073  9.513514  8.900000 
dram[27]:  8.946108  7.812500  7.450980  7.152381  7.369458  7.121951  7.115385  6.842857  6.794259  6.792079  7.319149  7.196808  8.242424  7.281915  7.863636  8.640244 
dram[28]:  7.742268  8.700565  7.537688  7.082569  7.505155  7.535354  6.924528  7.000000  6.642202  8.210526  6.677725  7.472528  7.438503  7.727273  8.075145  7.977401 
[...]
queue_avg = 10.016026 


dram_util_bins: 0 0 0 0 0 0 0 0 0 0
dram_eff_bins: 0 0 0 0 0 0 0 0 0 0
mrqq: max=64 avg=10.016
Memory Partition 28: 
Cache L2_bank_056:

Cache L2_bank_057:

In Dram Latency Queue (total = 246): 
DRAM[28]: 16 bks, busW=16 BL=2 CL=12, tRRD=3 tCCD=1, tRCD=12 tRAS=28 tRP=12 tRC=40
n_cmd=67453 n_nop=41509 n_act=3094 n_pre=3079 n_ref_event=0 n_req=23144 n_rd=22994 n_rd_L2_A=0 n_write=0 n_wr_bk=568 bw_util=0.3493
n_activity=44208 dram_eff=0.533
bk0: 1492a 58355i bk1: 1528a 58808i bk2: 1484a 57707i bk3: 1528a 57469i bk4: 1440a 58224i bk5: 1476a 57989i bk6: 1452a 57400i bk7: 1439a 57294i bk8: 1436a 57252i bk9: 1392a 58614i bk10: 1408a 58173i bk11: 1360a 59101i bk12: 1391a 59070i bk13: 1360a 59158i bk14: 1396a 59294i bk15: 1412a 59141i 

------------------------------------------------------------------------

Row_Buffer_Locality = 0.866243
Row_Buffer_Locality_read = 0.868635
Row_Buffer_Locality_write = 0.478873
Bank_Level_Parallism = 4.296207
Bank_Level_Parallism_Col = 3.355488
Bank_Level_Parallism_Ready = 2.213352
write_to_read_ratio_blp_rw_average = 0.046677
GrpLevelPara = 2.288852 

BW Util details:
bwutil = 0.349310 
total_CMD = 67453 
util_bw = 23562 
Wasted_Col = 11641 
Wasted_Row = 4212 
Idle = 28038 

BW Util Bottlenecks: 
RCDc_limit = 13237 
RCDWRc_limit = 265 
WTRc_limit = 1046 
RTWc_limit = 2734 
CCDLc_limit = 6206 
rwq = 0 
CCDLc_limit_alone = 5955 
WTRc_limit_alone = 950 
RTWc_limit_alone = 2579 

Commands details: 
total_CMD = 67453 
n_nop = 41509 
Read = 22994 
Write = 0 
L2_Alloc = 0 
L2_WB = 568 
n_act = 3094 
n_pre = 3079 
n_ref = 0 
n_req = 23144 
total_req = 23562 

Dual Bus Interface Util: 
issued_total_row = 6173 
issued_total_col = 23562 
Row_Bus_Util =  0.091516 
CoL_Bus_Util = 0.349310 
Either_Row_CoL_Bus_Util = 0.384623 
Issued_on_Two_Bus_Simul_Util = 0.056202 
issued_two_Eff = 0.146122 
queue_avg = 11.354069 


dram_util_bins: 0 0 0 0 0 0 0 0 0 0
dram_eff_bins: 0 0 0 0 0 0 0 0 0 0
mrqq: max=64 avg=11.3541
Memory Partition 29: 
Cache L2_bank_058:

Cache L2_bank_059:

In Dram Latency Queue (total = 238): 
DRAM[29]: 16 bks, busW=16 BL=2 CL=12, tRRD=3 tCCD=1, tRCD=12 tRAS=28 tRP=12 tRC=40
n_cmd=67453 n_nop=41587 n_act=3084 n_pre=3068 n_ref_event=0 n_req=23122 n_rd=22970 n_rd_L2_A=0 n_write=0 n_wr_bk=568 bw_util=0.349
n_activity=44183 dram_eff=0.5327
bk0: 1508a 58235i bk1: 1496a 58562i bk2: 1509a 58335i bk3: 1519a 57481i bk4: 1452a 58575i bk5: 1488a 57665i bk6: 1435a 57974i bk7: 1460a 57222i bk8: 1372a 57943i bk9: 1412a 57843i bk10: 1373a 58598i bk11: 1396a 58242i bk12: 1392a 58783i bk13: 1340a 59253i bk14: 1410a 59813i bk15: 1408a 60213i 

------------------------------------------------------------------------

Row_Buffer_Locality = 0.866574
Row_Buffer_Locality_read = 0.869102
Row_Buffer_Locality_write = 0.457746
Bank_Level_Parallism = 4.286376
Bank_Level_Parallism_Col = 3.327647
Bank_Level_Parallism_Ready = 2.192455
write_to_read_ratio_blp_rw_average = 0.041760
GrpLevelPara = 2.284059 

BW Util details:
bwutil = 0.348954 
total_CMD = 67453 
util_bw = 23538 
Wasted_Col = 11400 
Wasted_Row = 4168 
Idle = 28347 

BW Util Bottlenecks: 
RCDc_limit = 12909 
RCDWRc_limit = 280 
WTRc_limit = 1100 
RTWc_limit = 2075 
CCDLc_limit = 5827 
rwq = 0 
CCDLc_limit_alone = 5575 
WTRc_limit_alone = 987 
RTWc_limit_alone = 1936 

Commands details: 
total_CMD = 67453 
n_nop = 41587 
Read = 22970 
Write = 0 
L2_Alloc = 0 
L2_WB = 568 
n_act = 3084 
n_pre = 3068 
n_ref = 0 
n_req = 23122 
total_req = 23538 

Dual Bus Interface Util: 
issued_total_row = 6152 
issued_total_col = 23538 
Row_Bus_Util =  0.091204 
CoL_Bus_Util = 0.348954 
Either_Row_CoL_Bus_Util = 0.383467 
Issued_on_Two_Bus_Simul_Util = 0.056691 
issued_two_Eff = 0.147839 
queue_avg = 10.623263 


dram_util_bins: 0 0 0 0 0 0 0 0 0 0
dram_eff_bins: 0 0 0 0 0 0 0 0 0 0
mrqq: max=64 avg=10.6233
Memory Partition 30: 
Cache L2_bank_060:

Cache L2_bank_061:

In Dram Latency Queue (total = 206): 
DRAM[30]: 16 bks, busW=16 BL=2 CL=12, tRRD=3 tCCD=1, tRCD=12 tRAS=28 tRP=12 tRC=40
n_cmd=67453 n_nop=41586 n_act=3041 n_pre=3025 n_ref_event=0 n_req=23073 n_rd=22896 n_rd_L2_A=0 n_write=0 n_wr_bk=644 bw_util=0.349
n_activity=44775 dram_eff=0.5257
bk0: 1516a 56073i bk1: 1500a 58340i bk2: 1516a 57870i bk3: 1504a 58020i bk4: 1456a 58277i bk5: 1476a 57828i bk6: 1428a 57493i bk7: 1456a 58092i bk8: 1380a 58071i bk9: 1392a 57520i bk10: 1375a 58582i bk11: 1372a 59179i bk12: 1352a 58942i bk13: 1356a 58593i bk14: 1400a 60040i bk15: 1417a 59554i 

------------------------------------------------------------------------

Row_Buffer_Locality = 0.868144
Row_Buffer_Locality_read = 0.871042
Row_Buffer_Locality_write = 0.463415
Bank_Level_Parallism = 4.264293
Bank_Level_Parallism_Col = 3.367349
Bank_Level_Parallism_Ready = 2.251062
write_to_read_ratio_blp_rw_average = 0.062331
GrpLevelPara = 2.275433 

BW Util details:
bwutil = 0.348984 
total_CMD = 67453 
util_bw = 23540 
Wasted_Col = 12047 
Wasted_Row = 4240 
Idle = 27626 

BW Util Bottlenecks: 
RCDc_limit = 12758 
RCDWRc_limit = 328 
WTRc_limit = 875 
RTWc_limit = 3340 
CCDLc_limit = 6011 
rwq = 0 
CCDLc_limit_alone = 5715 
WTRc_limit_alone = 826 
RTWc_limit_alone = 3093 

Commands details: 
total_CMD = 67453 
n_nop = 41586 
Read = 22896 
Write = 0 
L2_Alloc = 0 
L2_WB = 644 
n_act = 3041 
n_pre = 3025 
n_ref = 0 
n_req = 23073 
total_req = 23540 

Dual Bus Interface Util: 
issued_total_row = 6066 
issued_total_col = 23540 
Row_Bus_Util =  0.089929 
CoL_Bus_Util = 0.348984 
Either_Row_CoL_Bus_Util = 0.383482 
Issued_on_Two_Bus_Simul_Util = 0.055431 
issued_two_Eff = 0.144547 
queue_avg = 12.165330 


dram_util_bins: 0 0 0 0 0 0 0 0 0 0
dram_eff_bins: 0 0 0 0 0 0 0 0 0 0
mrqq: max=64 avg=12.1653
Memory Partition 31: 
Cache L2_bank_062:

Cache L2_bank_063:

In Dram Latency Queue (total = 208): 
DRAM[31]: 16 bks, busW=16 BL=2 CL=12, tRRD=3 tCCD=1, tRCD=12 tRAS=28 tRP=12 tRC=40
n_cmd=67453 n_nop=41647 n_act=3066 n_pre=3053 n_ref_event=0 n_req=23087 n_rd=22883 n_rd_L2_A=0 n_write=0 n_wr_bk=685 bw_util=0.3494
n_activity=44518 dram_eff=0.5294
bk0: 1488a 56181i bk1: 1500a 58670i bk2: 1492a 57270i bk3: 1504a 57940i bk4: 1456a 58390i bk5: 1452a 57829i bk6: 1444a 58134i bk7: 1424a 57808i bk8: 1392a 57979i bk9: 1396a 58077i bk10: 1390a 58971i bk11: 1400a 58814i bk12: 1384a 58867i bk13: 1364a 58682i bk14: 1397a 59639i bk15: 1400a 59031i 

------------------------------------------------------------------------

Row_Buffer_Locality = 0.866987
Row_Buffer_Locality_read = 0.869664
Row_Buffer_Locality_write = 0.537634
Bank_Level_Parallism = 4.280841
Bank_Level_Parallism_Col = 3.389539
Bank_Level_Parallism_Ready = 2.244017
write_to_read_ratio_blp_rw_average = 0.065783
GrpLevelPara = 2.315437 

BW Util details:
bwutil = 0.349399 
total_CMD = 67453 
util_bw = 23568 
Wasted_Col = 11540 
Wasted_Row = 4612 
Idle = 27733 

BW Util Bottlenecks: 
RCDc_limit = 12168 
RCDWRc_limit = 377 
WTRc_limit = 823 
RTWc_limit = 3035 
CCDLc_limit = 5616 
rwq = 0 
CCDLc_limit_alone = 5295 
WTRc_limit_alone = 770 
RTWc_limit_alone = 2767 

Commands details: 
total_CMD = 67453 
n_nop = 41647 
Read = 22883 
Write = 0 
L2_Alloc = 0 
L2_WB = 685 
n_act = 3066 
n_pre = 3053 
n_ref = 0 
n_req = 23087 
total_req = 23568 

Dual Bus Interface Util: 
issued_total_row = 6119 
issued_total_col = 23568 
Row_Bus_Util =  0.090715 
CoL_Bus_Util = 0.349399 
Either_Row_CoL_Bus_Util = 0.382578 
Issued_on_Two_Bus_Simul_Util = 0.057536 
issued_two_Eff = 0.150391 
queue_avg = 12.398218 


dram_util_bins: 0 0 0 0 0 0 0 0 0 0
dram_eff_bins: 0 0 0 0 0 0 0 0 0 0
mrqq: max=64 avg=12.3982

========= L2 cache stats =========
L2_cache_bank[0]: Access = 16794, Miss = 12168, Miss_rate = 0.725, Pending_hits = 40, Reservation_fails = 4046
L2_cache_bank[1]: Access = 17180, Miss = 12200, Miss_rate = 0.710, Pending_hits = 58, Reservation_fails = 1014
L2_cache_bank[2]: Access = 16641, Miss = 12229, Miss_rate = 0.735, Pending_hits = 59, Reservation_fails = 6777
L2_cache_bank[3]: Access = 17065, Miss = 12280, Miss_rate = 0.720, Pending_hits = 41, Reservation_fails = 6964
L2_cache_bank[4]: Access = 16444, Miss = 12067, Miss_rate = 0.734, Pending_hits = 40, Reservation_fails = 5886
L2_cache_bank[5]: Access = 16738, Miss = 12122, Miss_rate = 0.724, Pending_hits = 47, Reservation_fails = 4687
L2_cache_bank[6]: Access = 16557, Miss = 12054, Miss_rate = 0.728, Pending_hits = 38, Reservation_fails = 5396
L2_cache_bank[7]: Access = 16981, Miss = 12139, Miss_rate = 0.715, Pending_hits = 61, Reservation_fails = 5263
L2_cache_bank[8]: Access = 16560, Miss = 12184, Miss_rate = 0.736, Pending_hits = 60, Reservation_fails = 4782
L2_cache_bank[9]: Access = 17084, Miss = 12190, Miss_rate = 0.714, Pending_hits = 68, Reservation_fails = 5153
L2_cache_bank[10]: Access = 16674, Miss = 12170, Miss_rate = 0.730, Pending_hits = 65, Reservation_fails = 9598
L2_cache_bank[11]: Access = 17319, Miss = 12295, Miss_rate = 0.710, Pending_hits = 80, Reservation_fails = 3615
L2_cache_bank[12]: Access = 15926, Miss = 12008, Miss_rate = 0.754, Pending_hits = 46, Reservation_fails = 5957
L2_cache_bank[13]: Access = 17228, Miss = 12276, Miss_rate = 0.713, Pending_hits = 66, Reservation_fails = 6705
L2_cache_bank[14]: Access = 16105, Miss = 12033, Miss_rate = 0.747, Pending_hits = 35, Reservation_fails = 2986
L2_cache_bank[15]: Access = 16921, Miss = 12180, Miss_rate = 0.720, Pending_hits = 52, Reservation_fails = 6446
L2_cache_bank[16]: Access = 16422, Miss = 12211, Miss_rate = 0.744, Pending_hits = 47, Reservation_fails = 3337
L2_cache_bank[17]: Access = 17212, Miss = 12369, Miss_rate = 0.719, Pending_hits = 58, Reservation_fails = 7346
L2_cache_bank[18]: Access = 16585, Miss = 12267, Miss_rate = 0.740, Pending_hits = 50, Reservation_fails = 5582
L2_cache_bank[19]: Access = 16809, Miss = 12160, Miss_rate = 0.723, Pending_hits = 48, Reservation_fails = 6937
L2_cache_bank[20]: Access = 16163, Miss = 12081, Miss_rate = 0.747, Pending_hits = 61, Reservation_fails = 2660
L2_cache_bank[21]: Access = 17165, Miss = 12081, Miss_rate = 0.704, Pending_hits = 51, Reservation_fails = 4135
L2_cache_bank[22]: Access = 16348, Miss = 12063, Miss_rate = 0.738, Pending_hits = 55, Reservation_fails = 4979
L2_cache_bank[23]: Access = 16935, Miss = 12080, Miss_rate = 0.713, Pending_hits = 44, Reservation_fails = 2921
L2_cache_bank[24]: Access = 17100, Miss = 12022, Miss_rate = 0.703, Pending_hits = 37, Reservation_fails = 3455
L2_cache_bank[25]: Access = 16884, Miss = 12209, Miss_rate = 0.723, Pending_hits = 43, Reservation_fails = 4013
L2_cache_bank[26]: Access = 16846, Miss = 12183, Miss_rate = 0.723, Pending_hits = 46, Reservation_fails = 2928
L2_cache_bank[27]: Access = 16703, Miss = 12151, Miss_rate = 0.727, Pending_hits = 51, Reservation_fails = 5805
L2_cache_bank[28]: Access = 16706, Miss = 12249, Miss_rate = 0.733, Pending_hits = 64, Reservation_fails = 4025
L2_cache_bank[29]: Access = 16741, Miss = 11961, Miss_rate = 0.714, Pending_hits = 39, Reservation_fails = 5009
L2_cache_bank[30]: Access = 17188, Miss = 12127, Miss_rate = 0.706, Pending_hits = 66, Reservation_fails = 3391
L2_cache_bank[31]: Access = 16835, Miss = 11983, Miss_rate = 0.712, Pending_hits = 53, Reservation_fails = 4034
L2_cache_bank[32]: Access = 17085, Miss = 12096, Miss_rate = 0.708, Pending_hits = 49, Reservation_fails = 3342
L2_cache_bank[33]: Access = 16989, Miss = 12152, Miss_rate = 0.715, Pending_hits = 73, Reservation_fails = 2431
L2_cache_bank[34]: Access = 17095, Miss = 12161, Miss_rate = 0.711, Pending_hits = 43, Reservation_fails = 4241
L2_cache_bank[35]: Access = 16887, Miss = 12202, Miss_rate = 0.723, Pending_hits = 89, Reservation_fails = 4212
L2_cache_bank[36]: Access = 16842, Miss = 12155, Miss_rate = 0.722, Pending_hits = 30, Reservation_fails = 3420
L2_cache_bank[37]: Access = 16947, Miss = 12132, Miss_rate = 0.716, Pending_hits = 48, Reservation_fails = 2356
L2_cache_bank[38]: Access = 16988, Miss = 12029, Miss_rate = 0.708, Pending_hits = 21, Reservation_fails = 2444
L2_cache_bank[39]: Access = 16966, Miss = 12061, Miss_rate = 0.711, Pending_hits = 56, Reservation_fails = 2828
L2_cache_bank[40]: Access = 17106, Miss = 12141, Miss_rate = 0.710, Pending_hits = 45, Reservation_fails = 1387
L2_cache_bank[41]: Access = 16867, Miss = 12234, Miss_rate = 0.725, Pending_hits = 79, Reservation_fails = 6557
L2_cache_bank[42]: Access = 17138, Miss = 12237, Miss_rate = 0.714, Pending_hits = 42, Reservation_fails = 1674
L2_cache_bank[43]: Access = 16874, Miss = 12122, Miss_rate = 0.718, Pending_hits = 64, Reservation_fails = 4738
L2_cache_bank[44]: Access = 16797, Miss = 12085, Miss_rate = 0.719, Pending_hits = 36, Reservation_fails = 1541
L2_cache_bank[45]: Access = 16697, Miss = 12080, Miss_rate = 0.723, Pending_hits = 46, Reservation_fails = 1883
L2_cache_bank[46]: Access = 16727, Miss = 12036, Miss_rate = 0.720, Pending_hits = 41, Reservation_fails = 7971
L2_cache_bank[47]: Access = 16663, Miss = 12163, Miss_rate = 0.730, Pending_hits = 36, Reservation_fails = 1930
L2_cache_bank[48]: Access = 16656, Miss = 12120, Miss_rate = 0.728, Pending_hits = 31, Reservation_fails = 1802
L2_cache_bank[49]: Access = 16979, Miss = 12228, Miss_rate = 0.720, Pending_hits = 50, Reservation_fails = 2195
L2_cache_bank[50]: Access = 17036, Miss = 12169, Miss_rate = 0.714, Pending_hits = 35, Reservation_fails = 2268
L2_cache_bank[51]: Access = 16751, Miss = 12229, Miss_rate = 0.730, Pending_hits = 44, Reservation_fails = 8584
L2_cache_bank[52]: Access = 16925, Miss = 12054, Miss_rate = 0.712, Pending_hits = 50, Reservation_fails = 2119
L2_cache_bank[53]: Access = 16566, Miss = 12083, Miss_rate = 0.729, Pending_hits = 40, Reservation_fails = 3998
L2_cache_bank[54]: Access = 16757, Miss = 12041, Miss_rate = 0.719, Pending_hits = 47, Reservation_fails = 3913
L2_cache_bank[55]: Access = 16522, Miss = 11936, Miss_rate = 0.722, Pending_hits = 29, Reservation_fails = 2830
L2_cache_bank[56]: Access = 16976, Miss = 12133, Miss_rate = 0.715, Pending_hits = 42, Reservation_fails = 6526
L2_cache_bank[57]: Access = 16743, Miss = 12129, Miss_rate = 0.724, Pending_hits = 52, Reservation_fails = 2597
L2_cache_bank[58]: Access = 16971, Miss = 12075, Miss_rate = 0.712, Pending_hits = 39, Reservation_fails = 4541
L2_cache_bank[59]: Access = 16489, Miss = 12196, Miss_rate = 0.740, Pending_hits = 40, Reservation_fails = 3265
L2_cache_bank[60]: Access = 16892, Miss = 12098, Miss_rate = 0.716, Pending_hits = 65, Reservation_fails = 5761
L2_cache_bank[61]: Access = 16499, Miss = 12053, Miss_rate = 0.731, Pending_hits = 23, Reservation_fails = 2033
L2_cache_bank[62]: Access = 17005, Miss = 12182, Miss_rate = 0.716, Pending_hits = 74, Reservation_fails = 6145
L2_cache_bank[63]: Access = 16765, Miss = 12014, Miss_rate = 0.717, Pending_hits = 42, Reservation_fails = 3118
L2_total_cache_accesses = 1076059
L2_total_cache_misses = 776618
L2_total_cache_miss_rate = 0.7217
L2_total_cache_pending_hits = 3170
L2_total_cache_reservation_fails = 270482
L2_total_cache_breakdown:
	L2_cache_stats_breakdown[GLOBAL_ACC_R][HIT] = 287140
	L2_cache_stats_breakdown[GLOBAL_ACC_R][HIT_RESERVED] = 3170
	L2_cache_stats_breakdown[GLOBAL_ACC_R][MISS] = 185626
	L2_cache_stats_breakdown[GLOBAL_ACC_R][RESERVATION_FAIL] = 270482
	L2_cache_stats_breakdown[GLOBAL_ACC_R][SECTOR_MISS] = 556642
	L2_cache_stats_breakdown[LOCAL_ACC_R][HIT] = 0
	L2_cache_stats_breakdown[LOCAL_ACC_R][HIT_RESERVED] = 0
	L2_cache_stats_breakdown[LOCAL_ACC_R][MISS] = 0
	L2_cache_stats_breakdown[LOCAL_ACC_R][RESERVATION_FAIL] = 0
	L2_cache_stats_breakdown[LOCAL_ACC_R][SECTOR_MISS] = 0
	L2_cache_stats_breakdown[CONST_ACC_R][HIT] = 0
	L2_cache_stats_breakdown[CONST_ACC_R][HIT_RESERVED] = 0
	L2_cache_stats_breakdown[CONST_ACC_R][MISS] = 0
	L2_cache_stats_breakdown[CONST_ACC_R][RESERVATION_FAIL] = 0
	L2_cache_stats_breakdown[CONST_ACC_R][SECTOR_MISS] = 0
	L2_cache_stats_breakdown[TEXTURE_ACC_R][HIT] = 0
	L2_cache_stats_breakdown[TEXTURE_ACC_R][HIT_RESERVED] = 0
	L2_cache_stats_breakdown[TEXTURE_ACC_R][MISS] = 0
	L2_cache_stats_breakdown[TEXTURE_ACC_R][RESERVATION_FAIL] = 0
	L2_cache_stats_breakdown[TEXTURE_ACC_R][SECTOR_MISS] = 0
	L2_cache_stats_breakdown[GLOBAL_ACC_W][HIT] = 9131
	L2_cache_stats_breakdown[GLOBAL_ACC_W][HIT_RESERVED] = 0
	L2_cache_stats_breakdown[GLOBAL_ACC_W][MISS] = 6772
	L2_cache_stats_breakdown[GLOBAL_ACC_W][RESERVATION_FAIL] = 0
	L2_cache_stats_breakdown[GLOBAL_ACC_W][SECTOR_MISS] = 27578
	L2_cache_stats_breakdown[LOCAL_ACC_W][HIT] = 0
	L2_cache_stats_breakdown[LOCAL_ACC_W][HIT_RESERVED] = 0
	L2_cache_stats_breakdown[LOCAL_ACC_W][MISS] = 0
	L2_cache_stats_breakdown[LOCAL_ACC_W][RESERVATION_FAIL] = 0
	L2_cache_stats_breakdown[LOCAL_ACC_W][SECTOR_MISS] = 0
	L2_cache_stats_breakdown[L1_WRBK_ACC][HIT] = 0
	L2_cache_stats_breakdown[L1_WRBK_ACC][HIT_RESERVED] = 0
	L2_cache_stats_breakdown[L1_WRBK_ACC][MISS] = 0
	L2_cache_stats_breakdown[L1_WRBK_ACC][RESERVATION_FAIL] = 0
	L2_cache_stats_breakdown[L1_WRBK_ACC][SECTOR_MISS] = 0
	L2_cache_stats_breakdown[L2_WRBK_ACC][HIT] = 0
	L2_cache_stats_breakdown[L2_WRBK_ACC][HIT_RESERVED] = 0
	L2_cache_stats_breakdown[L2_WRBK_ACC][MISS] = 0
	L2_cache_stats_breakdown[L2_WRBK_ACC][RESERVATION_FAIL] = 0
	L2_cache_stats_breakdown[L2_WRBK_ACC][SECTOR_MISS] = 0
	L2_cache_stats_breakdown[INST_ACC_R][HIT] = 0
	L2_cache_stats_breakdown[INST_ACC_R][HIT_RESERVED] = 0
	L2_cache_stats_breakdown[INST_ACC_R][MISS] = 0
	L2_cache_stats_breakdown[INST_ACC_R][RESERVATION_FAIL] = 0
	L2_cache_stats_breakdown[INST_ACC_R][SECTOR_MISS] = 0
	L2_cache_stats_breakdown[L1_WR_ALLOC_R][HIT] = 0
	L2_cache_stats_breakdown[L1_WR_ALLOC_R][HIT_RESERVED] = 0
	L2_cache_stats_breakdown[L1_WR_ALLOC_R][MISS] = 0
	L2_cache_stats_breakdown[L1_WR_ALLOC_R][RESERVATION_FAIL] = 0
	L2_cache_stats_breakdown[L1_WR_ALLOC_R][SECTOR_MISS] = 0
	L2_cache_stats_breakdown[L2_WR_ALLOC_R][HIT] = 0
	L2_cache_stats_breakdown[L2_WR_ALLOC_R][HIT_RESERVED] = 0
	L2_cache_stats_breakdown[L2_WR_ALLOC_R][MISS] = 0
	L2_cache_stats_breakdown[L2_WR_ALLOC_R][RESERVATION_FAIL] = 0
	L2_cache_stats_breakdown[L2_WR_ALLOC_R][SECTOR_MISS] = 0
	L2_cache_stats_breakdown[GLOBAL_ACC_R][TOTAL_ACCESS] = 1032578
	L2_cache_stats_breakdown[GLOBAL_ACC_W][TOTAL_ACCESS] = 43481
L2_total_cache_reservation_fail_breakdown:
	L2_cache_stats_fail_breakdown[GLOBAL_ACC_R][MSHR_ENRTY_FAIL] = 270482
L2_cache_data_port_util = 0.052
L2_cache_fill_port_util = 0.128

icnt_total_pkts_mem_to_simt=1561504
icnt_total_pkts_simt_to_mem=1574827
LD_mem_lat_dist  0 0 0 0 0 0 0 0 0 0 0 0 0 0 0 0 0 0 0 0 0 0 0 0 0 0 0
ST_mem_lat_dist  0 0 0 0 0 0 0 0 0 0 0 0 0 0 0 0 0 0 0 0 0 0 0 0 0 0 0
----------------------------Interconnect-DETAILS--------------------------------
Req_Network_injected_packets_num = 1574827
Req_Network_cycles = 89832
Req_Network_injected_packets_per_cycle =      17.5308 
Req_Network_conflicts_per_cycle =      29.4958
Req_Network_conflicts_per_cycle_util =      31.3990
Req_Bank_Level_Parallism =      18.6608
Req_Network_in_buffer_full_per_cycle =      12.9582
Req_Network_in_buffer_avg_util =     144.4203
Req_Network_out_buffer_full_per_cycle =       0.9521
Req_Network_out_buffer_avg_util =     157.6952

Reply_Network_injected_packets_num = 1561572
Reply_Network_cycles = 89832
Reply_Network_injected_packets_per_cycle =       17.3832
Reply_Network_conflicts_per_cycle =        4.7797
Reply_Network_conflicts_per_cycle_util =       5.5314
Reply_Bank_Level_Parallism =      20.1166
Reply_Network_in_buffer_full_per_cycle =       0.0000
Reply_Network_in_buffer_avg_util =       0.4332
Reply_Network_out_buffer_full_per_cycle =       0.0000
Reply_Network_out_buffer_avg_util =       0.2173
----------------------------END-of-Interconnect-DETAILS-------------------------


gpgpu_simulation_time = 0 days, 0 hrs, 12 min, 43 sec (763 sec)
gpgpu_simulation_rate = 60286 (inst/sec)
gpgpu_simulation_rate = 117 (cycle/sec)
gpgpu_silicon_slowdown = 9675213x
GPGPU-Sim: *** simulation thread exiting ***
GPGPU-Sim: ** break due to reaching the maximum cycles (or instructions) **
GPGPU-Sim: *** exit detected ***
