

        *** GPGPU-Sim Simulator Version 4.0.0  [build gpgpu-sim_git-commit-ffe0a1a00e984ecce9bf36e17ab94c4de0de8108_modified_0.0] ***


GPGPU-Sim PTX: simulation mode 0 (can change with PTX_SIM_MODE_FUNC environment variable:
               1=functional simulation only, 0=detailed performance simulator)
GPGPU-Sim PTX: overriding embedded ptx with ptx file (PTX_SIM_USE_PTX_FILE is set)
GPGPU-Sim: Configuration options:

-save_embedded_ptx                      0 # saves ptx files embedded in binary as <n>.ptx
-keep                                   0 # keep intermediate files created by GPGPU-Sim when interfacing with external programs
-gpgpu_ptx_save_converted_ptxplus                    0 # Saved converted ptxplus to a file
-gpgpu_occupancy_sm_number                   70 # The SM number to pass to ptxas when getting register usage for computing GPU occupancy. This parameter is required in the config.
-ptx_opcode_latency_int      4,13,4,5,145,21 # Opcode latencies for integers <ADD,MAX,MUL,MAD,DIV,SHFL>Default 1,1,19,25,145,32
-ptx_opcode_latency_fp          4,13,4,5,39 # Opcode latencies for single precision floating points <ADD,MAX,MUL,MAD,DIV>Default 1,1,1,1,30
-ptx_opcode_latency_dp         8,19,8,8,330 # Opcode latencies for double precision floating points <ADD,MAX,MUL,MAD,DIV>Default 8,8,8,8,335
-ptx_opcode_latency_sfu                  100 # Opcode latencies for SFU instructionsDefault 8
-ptx_opcode_latency_tesnor                   64 # Opcode latencies for Tensor instructionsDefault 64
-ptx_opcode_initiation_int          2,2,2,2,8,4 # Opcode initiation intervals for integers <ADD,MAX,MUL,MAD,DIV,SHFL>Default 1,1,4,4,32,4
-ptx_opcode_initiation_fp            2,2,2,2,4 # Opcode initiation intervals for single precision floating points <ADD,MAX,MUL,MAD,DIV>Default 1,1,1,1,5
-ptx_opcode_initiation_dp          4,4,4,4,130 # Opcode initiation intervals for double precision floating points <ADD,MAX,MUL,MAD,DIV>Default 8,8,8,8,130
-ptx_opcode_initiation_sfu                    8 # Opcode initiation intervals for sfu instructionsDefault 8
-ptx_opcode_initiation_tensor                   64 # Opcode initiation intervals for tensor instructionsDefault 64
-cdp_latency         7200,8000,100,12000,1600 # CDP API latency <cudaStreamCreateWithFlags, cudaGetParameterBufferV2_init_perWarp, cudaGetParameterBufferV2_perKernel, cudaLaunchDeviceV2_init_perWarp, cudaLaunchDevicV2_perKernel>Default 7200,8000,100,12000,1600
-network_mode                           2 # Interconnection network mode
-inter_config_file                   mesh # Interconnection network config file
-icnt_in_buffer_limit                  512 # in_buffer_limit
-icnt_out_buffer_limit                  512 # out_buffer_limit
-icnt_subnets                           2 # subnets
-icnt_arbiter_algo                      1 # arbiter_algo
-icnt_verbose                           0 # inct_verbose
-icnt_grant_cycles                      1 # grant_cycles
-gpgpu_ptx_use_cuobjdump                    1 # Use cuobjdump to extract ptx and sass from binaries
-gpgpu_experimental_lib_support                    0 # Try to extract code from cuda libraries [Broken because of unknown cudaGetExportTable]
-checkpoint_option                      0 #  checkpointing flag (0 = no checkpoint)
-checkpoint_kernel                      1 #  checkpointing during execution of which kernel (1- 1st kernel)
-checkpoint_CTA                         0 #  checkpointing after # of CTA (< less than total CTA)
-resume_option                          0 #  resume flag (0 = no resume)
-resume_kernel                          0 #  Resume from which kernel (1= 1st kernel)
-resume_CTA                             0 #  resume from which CTA 
-checkpoint_CTA_t                       0 #  resume from which CTA 
-checkpoint_insn_Y                      0 #  resume from which CTA 
-gpgpu_ptx_convert_to_ptxplus                    0 # Convert SASS (native ISA) to ptxplus and run ptxplus
-gpgpu_ptx_force_max_capability                   70 # Force maximum compute capability
-gpgpu_ptx_inst_debug_to_file                    0 # Dump executed instructions' debug information to file
-gpgpu_ptx_inst_debug_file       inst_debug.txt # Executed instructions' debug output file
-gpgpu_ptx_inst_debug_thread_uid                    1 # Thread UID for executed instructions' debug output
-gpgpu_n_mem_for_l2wb_pcommit                   32 # number of memory modules (e.g. memory controllers) in gpu
-gpgpu_n_sub_partition_per_mchannel_for_l2wb_pcommit                    2 # number of memory subpartition in each memory module
-gpgpu_dl2_bsize_for_l2wb_pcommit                  128 # default 128 bytes
-gpgpu_simd_model                       1 # 1 = post-dominator
-gpgpu_shader_core_pipeline              2048:32 # shader core pipeline config, i.e., {<nthread>:<warpsize>}
-gpgpu_tex_cache:l1  N:4:128:256,L:R:m:N:L,T:512:8,128:2 # per-shader L1 texture cache  (READ-ONLY) config  {<nsets>:<bsize>:<assoc>,<rep>:<wr>:<alloc>:<wr_alloc>,<mshr>:<N>:<merge>,<mq>:<rf>}
-gpgpu_const_cache:l1 N:128:64:8,L:R:f:N:L,S:2:64,4 # per-shader L1 constant memory cache  (READ-ONLY) config  {<nsets>:<bsize>:<assoc>,<rep>:<wr>:<alloc>:<wr_alloc>,<mshr>:<N>:<merge>,<mq>} 
-gpgpu_cache:il1     N:64:128:16,L:R:f:N:L,S:2:48,4 # shader L1 instruction cache config  {<nsets>:<bsize>:<assoc>,<rep>:<wr>:<alloc>:<wr_alloc>,<mshr>:<N>:<merge>,<mq>} 
-gpgpu_cache:dl1     S:1:128:256,L:L:s:N:L,A:256:8,16:0,32 # per-shader L1 data cache config  {<nsets>:<bsize>:<assoc>,<rep>:<wr>:<alloc>:<wr_alloc>,<mshr>:<N>:<merge>,<mq> | none}
-gpgpu_l1_banks                         4 # The number of L1 cache banks
-gpgpu_l1_banks_byte_interleaving                   32 # l1 banks byte interleaving granularity
-gpgpu_l1_banks_hashing_function                    0 # l1 banks hashing function
-gpgpu_l1_latency                      20 # L1 Hit Latency
-gpgpu_smem_latency                    20 # smem Latency
-gpgpu_cache:dl1PrefL1                 none # per-shader L1 data cache config  {<nsets>:<bsize>:<assoc>,<rep>:<wr>:<alloc>:<wr_alloc>,<mshr>:<N>:<merge>,<mq> | none}
-gpgpu_cache:dl1PrefShared                 none # per-shader L1 data cache config  {<nsets>:<bsize>:<assoc>,<rep>:<wr>:<alloc>:<wr_alloc>,<mshr>:<N>:<merge>,<mq> | none}
-gpgpu_gmem_skip_L1D                    0 # global memory access skip L1D cache (implements -Xptxas -dlcm=cg, default=no skip)
-gpgpu_perfect_mem                      0 # enable perfect memory mode (no cache miss)
-n_regfile_gating_group                    4 # group of lanes that should be read/written together)
-gpgpu_clock_gated_reg_file                    0 # enable clock gated reg file for power calculations
-gpgpu_clock_gated_lanes                    0 # enable clock gated lanes for power calculations
-gpgpu_shader_registers                65536 # Number of registers per shader core. Limits number of concurrent CTAs. (default 8192)
-gpgpu_registers_per_block                65536 # Maximum number of registers per CTA. (default 8192)
-gpgpu_ignore_resources_limitation                    0 # gpgpu_ignore_resources_limitation (default 0)
-gpgpu_shader_cta                      32 # Maximum number of concurrent CTAs in shader (default 8)
-gpgpu_num_cta_barriers                   16 # Maximum number of named barriers per CTA (default 16)
-gpgpu_n_clusters                      80 # number of processing clusters
-gpgpu_n_cores_per_cluster                    1 # number of simd cores per cluster
-gpgpu_n_cluster_ejection_buffer_size                   32 # number of packets in ejection buffer
-gpgpu_n_ldst_response_buffer_size                    2 # number of response packets in ld/st unit ejection buffer
-gpgpu_shmem_per_block                65536 # Size of shared memory per thread block or CTA (default 48kB)
-gpgpu_shmem_size                   98304 # Size of shared memory per shader core (default 16kB)
-gpgpu_adaptive_cache_config            536870913 # adaptive_cache_config
-gpgpu_shmem_sizeDefault                98304 # Size of shared memory per shader core (default 16kB)
-gpgpu_shmem_size_PrefL1                16384 # Size of shared memory per shader core (default 16kB)
-gpgpu_shmem_size_PrefShared                16384 # Size of shared memory per shader core (default 16kB)
-gpgpu_shmem_num_banks                   32 # Number of banks in the shared memory in each shader core (default 16)
-gpgpu_shmem_limited_broadcast                    0 # Limit shared memory to do one broadcast per cycle (default on)
-gpgpu_shmem_warp_parts                    1 # Number of portions a warp is divided into for shared memory bank conflict check 
-gpgpu_mem_unit_ports                    1 # The number of memory transactions allowed per core cycle
-gpgpu_shmem_warp_parts                    1 # Number of portions a warp is divided into for shared memory bank conflict check 
-gpgpu_warpdistro_shader                   -1 # Specify which shader core to collect the warp size distribution from
-gpgpu_warp_issue_shader                    0 # Specify which shader core to collect the warp issue distribution from
-gpgpu_local_mem_map                    1 # Mapping from local memory space address to simulated GPU physical address space (default = enabled)
-gpgpu_num_reg_banks                   16 # Number of register banks (default = 8)
-gpgpu_reg_bank_use_warp_id                    0 # Use warp ID in mapping registers to banks (default = off)
-gpgpu_sub_core_model                    1 # Sub Core Volta/Pascal model (default = off)
-gpgpu_enable_specialized_operand_collector                    0 # enable_specialized_operand_collector
-gpgpu_operand_collector_num_units_sp                    4 # number of collector units (default = 4)
-gpgpu_operand_collector_num_units_dp                    0 # number of collector units (default = 0)
-gpgpu_operand_collector_num_units_sfu                    4 # number of collector units (default = 4)
-gpgpu_operand_collector_num_units_int                    0 # number of collector units (default = 0)
-gpgpu_operand_collector_num_units_tensor_core                    4 # number of collector units (default = 4)
-gpgpu_operand_collector_num_units_mem                    2 # number of collector units (default = 2)
-gpgpu_operand_collector_num_units_gen                    8 # number of collector units (default = 0)
-gpgpu_operand_collector_num_in_ports_sp                    1 # number of collector unit in ports (default = 1)
-gpgpu_operand_collector_num_in_ports_dp                    0 # number of collector unit in ports (default = 0)
-gpgpu_operand_collector_num_in_ports_sfu                    1 # number of collector unit in ports (default = 1)
-gpgpu_operand_collector_num_in_ports_int                    0 # number of collector unit in ports (default = 0)
-gpgpu_operand_collector_num_in_ports_tensor_core                    1 # number of collector unit in ports (default = 1)
-gpgpu_operand_collector_num_in_ports_mem                    1 # number of collector unit in ports (default = 1)
-gpgpu_operand_collector_num_in_ports_gen                    8 # number of collector unit in ports (default = 0)
-gpgpu_operand_collector_num_out_ports_sp                    1 # number of collector unit in ports (default = 1)
-gpgpu_operand_collector_num_out_ports_dp                    0 # number of collector unit in ports (default = 0)
-gpgpu_operand_collector_num_out_ports_sfu                    1 # number of collector unit in ports (default = 1)
-gpgpu_operand_collector_num_out_ports_int                    0 # number of collector unit in ports (default = 0)
-gpgpu_operand_collector_num_out_ports_tensor_core                    1 # number of collector unit in ports (default = 1)
-gpgpu_operand_collector_num_out_ports_mem                    1 # number of collector unit in ports (default = 1)
-gpgpu_operand_collector_num_out_ports_gen                    8 # number of collector unit in ports (default = 0)
-gpgpu_coalesce_arch                   60 # Coalescing arch (GT200 = 13, Fermi = 20)
-gpgpu_num_sched_per_core                    4 # Number of warp schedulers per core
-gpgpu_max_insn_issue_per_warp                    1 # Max number of instructions that can be issued per warp in one cycle by scheduler (either 1 or 2)
-gpgpu_dual_issue_diff_exec_units                    1 # should dual issue use two different execution unit resources (Default = 1)
-gpgpu_simt_core_sim_order                    1 # Select the simulation order of cores in a cluster (0=Fix, 1=Round-Robin)
-gpgpu_pipeline_widths 4,4,4,4,4,4,4,4,4,4,8,4,4 # Pipeline widths ID_OC_SP,ID_OC_DP,ID_OC_INT,ID_OC_SFU,ID_OC_MEM,OC_EX_SP,OC_EX_DP,OC_EX_INT,OC_EX_SFU,OC_EX_MEM,EX_WB,ID_OC_TENSOR_CORE,OC_EX_TENSOR_CORE
-gpgpu_tensor_core_avail                    1 # Tensor Core Available (default=0)
-gpgpu_num_sp_units                     4 # Number of SP units (default=1)
-gpgpu_num_dp_units                     4 # Number of DP units (default=0)
-gpgpu_num_int_units                    4 # Number of INT units (default=0)
-gpgpu_num_sfu_units                    4 # Number of SF units (default=1)
-gpgpu_num_tensor_core_units                    4 # Number of tensor_core units (default=1)
-gpgpu_num_mem_units                    1 # Number if ldst units (default=1) WARNING: not hooked up to anything
-gpgpu_scheduler                      gto # Scheduler configuration: < lrr | gto | two_level_active > If two_level_active:<num_active_warps>:<inner_prioritization>:<outer_prioritization>For complete list of prioritization values see shader.h enum scheduler_prioritization_typeDefault: gto
-gpgpu_concurrent_kernel_sm                    0 # Support concurrent kernels on a SM (default = disabled)
-gpgpu_perfect_inst_const_cache                    1 # perfect inst and const cache mode, so all inst and const hits in the cache(default = disabled)
-gpgpu_inst_fetch_throughput                    4 # the number of fetched intruction per warp each cycle
-gpgpu_reg_file_port_throughput                    2 # the number ports of the register file
-specialized_unit_1         0,4,4,4,4,BRA # specialized unit config {<enabled>,<num_units>:<latency>:<initiation>,<ID_OC_SPEC>:<OC_EX_SPEC>,<NAME>}
-specialized_unit_2         0,4,4,4,4,BRA # specialized unit config {<enabled>,<num_units>:<latency>:<initiation>,<ID_OC_SPEC>:<OC_EX_SPEC>,<NAME>}
-specialized_unit_3         0,4,4,4,4,BRA # specialized unit config {<enabled>,<num_units>:<latency>:<initiation>,<ID_OC_SPEC>:<OC_EX_SPEC>,<NAME>}
-specialized_unit_4         0,4,4,4,4,BRA # specialized unit config {<enabled>,<num_units>:<latency>:<initiation>,<ID_OC_SPEC>:<OC_EX_SPEC>,<NAME>}
-specialized_unit_5         0,4,4,4,4,BRA # specialized unit config {<enabled>,<num_units>:<latency>:<initiation>,<ID_OC_SPEC>:<OC_EX_SPEC>,<NAME>}
-specialized_unit_6         0,4,4,4,4,BRA # specialized unit config {<enabled>,<num_units>:<latency>:<initiation>,<ID_OC_SPEC>:<OC_EX_SPEC>,<NAME>}
-specialized_unit_7         0,4,4,4,4,BRA # specialized unit config {<enabled>,<num_units>:<latency>:<initiation>,<ID_OC_SPEC>:<OC_EX_SPEC>,<NAME>}
-specialized_unit_8         0,4,4,4,4,BRA # specialized unit config {<enabled>,<num_units>:<latency>:<initiation>,<ID_OC_SPEC>:<OC_EX_SPEC>,<NAME>}
-gpgpu_perf_sim_memcpy                    1 # Fill the L2 cache on memcpy
-gpgpu_simple_dram_model                    0 # simple_dram_model with fixed latency and BW
-gpgpu_dram_scheduler                    1 # 0 = fifo, 1 = FR-FCFS (defaul)
-gpgpu_dram_partition_queues          64:64:64:64 # i2$:$2d:d2$:$2i
-l2_ideal                               0 # Use a ideal L2 cache that always hit
-gpgpu_cache:dl2     S:32:128:24,L:B:m:L:P,A:192:4,32:0,32 # unified banked L2 data cache config  {<nsets>:<bsize>:<assoc>,<rep>:<wr>:<alloc>:<wr_alloc>,<mshr>:<N>:<merge>,<mq>}
-gpgpu_cache:dl2_texture_only                    0 # L2 cache used for texture only
-gpgpu_n_mem                           32 # number of memory modules (e.g. memory controllers) in gpu
-gpgpu_n_sub_partition_per_mchannel                    2 # number of memory subpartition in each memory module
-gpgpu_n_mem_per_ctrlr                    1 # number of memory chips per memory controller
-gpgpu_memlatency_stat                   14 # track and display latency statistics 0x2 enables MC, 0x4 enables queue logs
-gpgpu_frfcfs_dram_sched_queue_size                   64 # 0 = unlimited (default); # entries per chip
-gpgpu_dram_return_queue_size                  192 # 0 = unlimited (default); # entries per chip
-gpgpu_dram_buswidth                   16 # default = 4 bytes (8 bytes per cycle at DDR)
-gpgpu_dram_burst_length                    2 # Burst length of each DRAM request (default = 4 data bus cycle)
-dram_data_command_freq_ratio                    2 # Frequency ratio between DRAM data bus and command bus (default = 2 times, i.e. DDR)
-gpgpu_dram_timing_opt nbk=16:CCD=1:RRD=3:RCD=12:RAS=28:RP=12:RC=40: CL=12:WL=2:CDLR=3:WR=10:nbkgrp=4:CCDL=2:RTPL=3 # DRAM timing parameters = {nbk:tCCD:tRRD:tRCD:tRAS:tRP:tRC:CL:WL:tCDLR:tWR:nbkgrp:tCCDL:tRTPL}
-gpgpu_l2_rop_latency                  160 # ROP queue latency (default 85)
-dram_latency                         200 # DRAM latency (default 30)
-dram_write_latency                   600 # DRAM write latency (default 100)
-dram_dual_bus_interface                    1 # dual_bus_interface (default = 0) 
-dram_bnk_indexing_policy                    0 # dram_bnk_indexing_policy (0 = normal indexing, 1 = Xoring with the higher bits) (Default = 0)
-dram_bnkgrp_indexing_policy                    1 # dram_bnkgrp_indexing_policy (0 = take higher bits, 1 = take lower bits) (Default = 0)
-dram_seperate_write_queue_enable                    0 # Seperate_Write_Queue_Enable
-dram_write_queue_size             32:28:16 # Write_Queue_Size
-dram_elimnate_rw_turnaround                    0 # elimnate_rw_turnaround i.e set tWTR and tRTW = 0
-icnt_flit_size                        40 # icnt_flit_size
-gpgpu_mem_addr_mapping dramid@8;00000000.00000000.00000000.00000000.0000RRRR.RRRRRRRR.RBBBCCCB.CCCSSSSS # mapping memory address to dram model {dramid@<start bit>;<memory address map>}
-gpgpu_mem_addr_test                    0 # run sweep test to check address mapping for aliased address
-gpgpu_mem_address_mask                    1 # 0 = old addressing mask, 1 = new addressing mask, 2 = new add. mask + flipped bank sel and chip sel bits
-gpgpu_memory_partition_indexing                    0 # 0 = no indexing, 1 = bitwise xoring, 2 = IPoly, 3 = custom indexing
-gpuwattch_xml_file         gpuwattch.xml # GPUWattch XML file
-power_simulation_enabled                    0 # Turn on power simulator (1=On, 0=Off)
-power_per_cycle_dump                    0 # Dump detailed power output each cycle
-power_trace_enabled                    0 # produce a file for the power trace (1=On, 0=Off)
-power_trace_zlevel                     6 # Compression level of the power trace output log (0=no comp, 9=highest)
-steady_power_levels_enabled                    0 # produce a file for the steady power levels (1=On, 0=Off)
-steady_state_definition                  8:4 # allowed deviation:number of samples
-gpgpu_max_cycle                        0 # terminates gpu simulation early (0 = no limit)
-gpgpu_max_insn                         0 # terminates gpu simulation early (0 = no limit)
-gpgpu_max_cta                          0 # terminates gpu simulation early (0 = no limit)
-gpgpu_max_completed_cta                  256 # terminates gpu simulation early (0 = no limit)
-gpgpu_runtime_stat                   500 # display runtime statistics such as dram utilization {<freq>:<flag>}
-liveness_message_freq                    1 # Minimum number of seconds between simulation liveness messages (0 = always print)
-gpgpu_compute_capability_major                    7 # Major compute capability version number
-gpgpu_compute_capability_minor                    0 # Minor compute capability version number
-gpgpu_flush_l1_cache                    1 # Flush L1 cache at the end of each kernel call
-gpgpu_flush_l2_cache                    0 # Flush L2 cache at the end of each kernel call
-gpgpu_deadlock_detect                    1 # Stop the simulation at deadlock (1=on (default), 0=off)
-gpgpu_ptx_instruction_classification                    0 # if enabled will classify ptx instruction types per kernel (Max 255 kernels now)
-gpgpu_ptx_sim_mode                     0 # Select between Performance (default) or Functional simulation (1)
-gpgpu_clock_domains 1132.0:1132.0:1132.0:850.0 # Clock Domain Frequencies in MhZ {<Core Clock>:<ICNT Clock>:<L2 Clock>:<DRAM Clock>}
-gpgpu_max_concurrent_kernel                    8 # maximum kernels that can run concurrently on GPU
-gpgpu_cflog_interval                    0 # Interval between each snapshot in control flow logger
-visualizer_enabled               e2c96ab854920b9b814ed0b032e65335  /home/pli11/Videos/parboil_benchmark/parboil/benchmarks/spmv/build/nvm_default/spmv
Extracting PTX file and ptxas options    1: spmv.1.sm_70.ptx -arch=sm_70
      0 # Turn on visualizer output (1=On, 0=Off)
-visualizer_outputfile                 NULL # Specifies the output log file for visualizer
-visualizer_zlevel                      6 # Compression level of the visualizer output log (0=no comp, 9=highest)
-gpgpu_stack_size_limit                 1024 # GPU thread stack size
-gpgpu_heap_size_limit              8388608 # GPU malloc heap size 
-gpgpu_runtime_sync_depth_limit                    2 # GPU device runtime synchronize depth
-gpgpu_runtime_pending_launch_count_limit                 2048 # GPU device runtime pending launch count
-trace_enabled                          0 # Turn on traces
-trace_components                    none # comma seperated list of traces to enable. Complete list found in trace_streams.tup. Default none
-trace_sampling_core                    0 # The core which is printed using CORE_DPRINTF. Default 0
-trace_sampling_memory_partition                   -1 # The memory partition which is printed using MEMPART_DPRINTF. Default -1 (i.e. all)
-enable_ptx_file_line_stats                    1 # Turn on PTX source line statistic profiling. (1 = On)
-ptx_line_stats_filename gpgpu_inst_stats.txt # Output file for PTX source line statistics.
-gpgpu_kernel_launch_latency                 5000 # Kernel launch latency in cycles. Default: 0
-gpgpu_cdp_enabled                      0 # Turn on CDP
-gpgpu_TB_launch_latency                    0 # thread block launch latency in cycles. Default: 0
DRAM Timing Options:
nbk                                    16 # number of banks
CCD                                     1 # column to column delay
RRD                                     3 # minimal delay between activation of rows in different banks
RCD                                    12 # row to column delay
RAS                                    28 # time needed to activate row
RP                                     12 # time needed to precharge (deactivate) row
RC                                     40 # row cycle time
CDLR                                    3 # switching from write to read (changes tWTR)
WR                                     10 # last data-in to row precharge
CL                                     12 # CAS latency
WL                                      2 # Write latency
nbkgrp                                  4 # number of bank groups
CCDL                                    2 # column to column delay between accesses to different bank groups
RTPL                                    3 # read to precharge delay between accesses to different bank groups
Total number of memory sub partition = 64
addr_dec_mask[CHIP]  = 0000000000001f00 	high:13 low:8
addr_dec_mask[BK]    = 00000000000e2000 	high:20 low:13
addr_dec_mask[ROW]   = 00000001fff00000 	high:33 low:20
addr_dec_mask[COL]   = 000000000001c0ff 	high:17 low:0
addr_dec_mask[BURST] = 000000000000001f 	high:5 low:0
sub_partition_id_mask = 0000000000002000
GPGPU-Sim uArch: clock freqs: 1132000000.000000:1132000000.000000:1132000000.000000:850000000.000000
GPGPU-Sim uArch: clock periods: 0.00000000088339222615:0.00000000088339222615:0.00000000088339222615:0.00000000117647058824
*** Initializing Memory Statistics ***
GPGPU-Sim uArch: performance model initialization complete.
self exe links to: /home/pli11/Videos/parboil_benchmark/parboil/benchmarks/spmv/build/nvm_default/spmv
self exe links to: /home/pli11/Videos/parboil_benchmark/parboil/benchmarks/spmv/build/nvm_default/spmv
10.1
GPGPU-Sim PTX: __cudaRegisterFatBinary, fat_cubin_handle = 1, filename=default
self exe links to: /home/pli11/Videos/parboil_benchmark/parboil/benchmarks/spmv/build/nvm_default/spmv
Running md5sum using "md5sum /home/pli11/Videos/parboil_benchmark/parboil/benchmarks/spmv/build/nvm_default/spmv "
self exe links to: /home/pli11/Videos/parboil_benchmark/parboil/benchmarks/spmv/build/nvm_default/spmv
Extracting specific PTX file named spmv.1.sm_70.ptx 
GPGPU-Sim PTX: __cudaRegisterFunction _Z13spmv_jds_nvmbPfPKfPKiS3_S1_S3_i : hostFun 0x0x40402b, fat_cubin_handle = 1
GPGPU-Sim PTX: Parsing spmv.1.sm_70.ptx
GPGPU-Sim PTX: allocating global region for "tex_x_float" from 0x100 to 0x104 (global memory space)
GPGPU-Sim PTX: allocating constant region for "jds_ptr_int" from 0x180 to 0x4fa0 (global memory space) 1
GPGPU-Sim PTX: allocating constant region for "sh_zcnt_int" from 0x5000 to 0x9e20 (global memory space) 2
GPGPU-Sim PTX: allocating global region for "NVM_log" from 0x9e80 to 0x4009e80 (global memory space)
GPGPU-Sim PTX: allocating global region for "NVM_flag" from 0x4009e80 to 0x4409e80 (global memory space)
GPGPU-Sim PTX: instruction assembly for function '_Z13spmv_jds_nvmoPfPKfPKiS3_S1_S3_i'...   done.
GPGPU-Sim PTX: instruction assembly for function '_Z13spmv_jds_nvmuPfPKfPKiS3_S1_S3_i'...   done.
GPGPU-Sim PTX: instruction assembly for function '_Z13spmv_jds_nvm1PfPKfPKiS3_S1_S3_i'...   done.
GPGPU-Sim PTX: instruction assembly for function '_Z13spmv_jds_nvm2PfPKfPKiS3_S1_S3_i'...   done.
GPGPU-Sim PTX: instruction assembly for function '_Z13spmv_jds_nvmgPfPKfPKiS3_S1_S3_i'...   done.
GPGPU-Sim PTX: instruction assembly for function '_Z13spmv_jds_nvm3PfPKfPKiS3_S1_S3_i'...   done.
GPGPU-Sim PTX: instruction assembly for function '_Z13spmv_jds_nvm4PfPKfPKiS3_S1_S3_i'...   done.
GPGPU-Sim PTX: instruction assembly for function '_Z13spmv_jds_nvmiPfPKfPKiS3_S1_S3_i'...   done.
GPGPU-Sim PTX: instruction assembly for function '_Z13spmv_jds_nvm6PfPKfPKiS3_S1_S3_i'...   done.
GPGPU-Sim PTX: instruction assembly for function '_Z13spmv_jds_nvm5PfPKfPKiS3_S1_S3_i'...   done.
GPGPU-Sim PTX: instruction assembly for function '_Z8spmv_jdsPfPKfPKiS3_S1_S3_i'...   done.
GPGPU-Sim PTX: instruction assembly for function '_Z13spmv_jds_nvmbPfPKfPKiS3_S1_S3_i'...   done.
GPGPU-Sim PTX: finished parsing EMBEDDED .ptx file spmv.1.sm_70.ptx
GPGPU-Sim PTX: loading globals with explicit initializers... 
GPGPU-Sim PTX: finished loading globals (0 bytes total).
GPGPU-Sim PTX: loading constants with explicit initializers...  done.
GPGPU-Sim PTX: Loading PTXInfo from spmv.1.sm_70.ptx
GPGPU-Sim PTX: Binary info : gmem=71303168, cmem=40000
GPGPU-Sim PTX: Kernel '_Z13spmv_jds_nvmbPfPKfPKiS3_S1_S3_i' : regs=31, lmem=0, smem=0, cmem=412
GPGPU-Sim PTX: Kernel '_Z8spmv_jdsPfPKfPKiS3_S1_S3_i' : regs=31, lmem=0, smem=0, cmem=412
GPGPU-Sim PTX: Kernel '_Z13spmv_jds_nvm5PfPKfPKiS3_S1_S3_i' : regs=32, lmem=0, smem=0, cmem=412
GPGPU-Sim PTX: Kernel '_Z13spmv_jds_nvm6PfPKfPKiS3_S1_S3_i' : regs=32, lmem=0, smem=0, cmem=412
GPGPU-Sim PTX: Kernel '_Z13spmv_jds_nvmiPfPKfPKiS3_S1_S3_i' : regs=32, lmem=0, smem=0, cmem=412
GPGPU-Sim PTX: Kernel '_Z13spmv_jds_nvm4PfPKfPKiS3_S1_S3_i' : regs=32, lmem=0, smem=0, cmem=412
GPGPU-Sim PTX: Kernel '_Z13spmv_jds_nvm3PfPKfPKiS3_S1_S3_i' : regs=32, lmem=0, smem=0, cmem=412
GPGPU-Sim PTX: Kernel '_Z13spmv_jds_nvmgPfPKfPKiS3_S1_S3_i' : regs=32, lmem=0, smem=0, cmem=412
GPGPU-Sim PTX: Kernel '_Z13spmv_jds_nvm2PfPKfPKiS3_S1_S3_i' : regs=31, lmem=0, smem=0, cmem=412
GPGPU-Sim PTX: Kernel '_Z13spmv_jds_nvm1PfPKfPKiS3_S1_S3_i' : regs=31, lmem=0, smem=0, cmem=412
GPGPU-Sim PTX: Kernel '_Z13spmv_jds_nvmuPfPKfPKiS3_S1_S3_i' : regs=31, lmem=0, smem=0, cmem=412
GPGPU-Sim PTX: Kernel '_Z13spmv_jds_nvmoPfPKfPKiS3_S1_S3_i' : regs=31, lmem=0, smem=0, cmem=412
GPGPU-Sim PTX: __cudaRegisterFunction _Z8spmv_jdsPfPKfPKiS3_S1_S3_i : hostFun 0x0x403e2e, fat_cubin_handle = 1
GPGPU-Sim PTX: __cudaRegisterFunction _Z13spmv_jds_nvm5PfPKfPKiS3_S1_S3_i : hostFun 0x0x403c31, fat_cubin_handle = 1
GPGPU-Sim PTX: __cudaRegisterFunction _Z13spmv_jds_nvm6PfPKfPKiS3_S1_S3_i : hostFun 0x0x403a34, fat_cubin_handle = 1
GPGPU-Sim PTX: __cudaRegisterFunction _Z13spmv_jds_nvmiPfPKfPKiS3_S1_S3_i : hostFun 0x0x403837, fat_cubin_handle = 1
GPGPU-Sim PTX: __cudaRegisterFunction _Z13spmv_jds_nvm4PfPKfPKiS3_S1_S3_i : hostFun 0x0x40363a, fat_cubin_handle = 1
GPGPU-Sim PTX: __cudaRegisterFunction _Z13spmv_jds_nvm3PfPKfPKiS3_S1_S3_i : hostFun 0x0x40343d, fat_cubin_handle = 1
GPGPU-Sim PTX: __cudaRegisterFunction _Z13spmv_jds_nvmgPfPKfPKiS3_S1_S3_i : hostFun 0x0x403240, fat_cubin_handle = 1
GPGPU-Sim PTX: __cudaRegisterFunction _Z13spmv_jds_nvm2PfPKfPKiS3_S1_S3_i : hostFun 0x0x403043, fat_cubin_handle = 1
GPGPU-Sim PTX: __cudaRegisterFunction _Z13spmv_jds_nvm1PfPKfPKiS3_S1_S3_i : hostFun 0x0x402e46, fat_cubin_handle = 1
GPGPU-Sim PTX: __cudaRegisterFunction _Z13spmv_jds_nvmuPfPKfPKiS3_S1_S3_i : hostFun 0x0x402c49, fat_cubin_handle = 1
GPGPU-Sim PTX: __cudaRegisterFunction _Z13spmv_jds_nvmoPfPKfPKiS3_S1_S3_i : hostFun 0x0x402a4c, fat_cubin_handle = 1
GPGPU-Sim PTX: in __cudaRegisterTexture:
GPGPU-Sim PTX:   int dim = 1
GPGPU-Sim PTX:   int norm = 0
GPGPU-Sim PTX:   int ext = 0
GPGPU-Sim PTX:   Execution warning: Not finished implementing "void __cudaRegisterTextureInternal(void**, const textureReference*, const void**, const char*, int, int, int, gpgpu_context*)"
GPGPU-Sim PTX: __cudaRegisterVar: hostVar = 0x60e2e0; deviceAddress = jds_ptr_int; deviceName = jds_ptr_int
GPGPU-Sim PTX: __cudaRegisterVar: Registering const memory space of 20000 bytes
GPGPU-Sim PTX registering constant jds_ptr_int (20000 bytes) to name mapping
GPGPU-Sim PTX: __cudaRegisterVar: hostVar = 0x613100; deviceAddress = sh_zcnt_int; deviceName = sh_zcnt_int
GPGPU-Sim PTX: __cudaRegisterVar: Registering const memory space of 20000 bytes
GPGPU-Sim PTX registering constant sh_zcnt_int (20000 bytes) to name mapping
GPGPU-Sim PTX: __cudaRegisterVar: hostVar = 0x617f20; deviceAddress = NVM_log; deviceName = NVM_log
GPGPU-Sim PTX: __cudaRegisterVar: Registering const memory space of 67108864 bytes
GPGPU-Sim PTX registering global NVM_log hostVar to name mapping
GPGPU-Sim PTX: __cudaRegisterVar: hostVar = 0x4617f20; deviceAddress = NVM_flag; deviceName = NVM_flag
GPGPU-Sim PTX: __cudaRegisterVar: Registering const memory space of 4194304 bytes
GPGPU-Sim PTX registering global NVM_flag hostVar to name mapping
/home/pli11/Videos/parboil_benchmark/parboil/benchmarks/spmv/build/nvm_default/spmv -i /home/pli11/Videos/parboil_benchmark/parboil/datasets/spmv/large/input/Dubcova3.mtx.bin,/home/pli11/Videos/parboil_benchmark/parboil/datasets/spmv/large/input/vector.bin -o /home/pli11/Videos/parboil_benchmark/parboil/benchmarks/spmv/run/large/Dubcova3.mtx.out 
CUDA accelerated sparse matrix vector multiplication****
Original version by Li-Wen Chang <lchang20@illinois.edu> and Shengzhao Wu<wu14@illinois.edu>
This version maintained by Chris Rodrigues  ***********
Converting COO to JDS format (146689x146689)
3636649 matrix entries, warp size = 32, row padding align = 1, pack size = 1

Padding data....146720 rows, 4585 groups
Allocating data space: 3637664 entries (0.027903% padding)
Finished converting.
JDS format has 146720 columns, 49 rows.
nz_count_len = 4585
GPGPU-Sim PTX: cudaMemcpyToSymbol: symbol = 0x60e2e0
GPGPU-Sim PTX: starting gpgpu_ptx_sim_memcpy_symbol with hostVar 0x0x60e2e0
GPGPU-Sim PTX: gpgpu_ptx_sim_memcpy_symbol: Found PTX symbol w/ hostVar=0x60e2e0
GPGPU-Sim PTX: gpgpu_ptx_sim_memcpy_symbol: copying const memory 200 bytes  to  symbol jds_ptr_int+0 @0x180 ...
GPGPU-Sim PTX: cudaMemcpyToSymbol: symbol = 0x613100
GPGPU-Sim PTX: starting gpgpu_ptx_sim_memcpy_symbol with hostVar 0x0x613100
GPGPU-Sim PTX: gpgpu_ptx_sim_memcpy_symbol: Found PTX symbol w/ hostVar=0x613100
GPGPU-Sim PTX: gpgpu_ptx_sim_memcpy_symbol: copying const memory 18340 bytes  to  symbol sh_zcnt_int+0 @0x5000 ...
GPGPU-Sim: synchronize waiting for inactive GPU simulation
GPGPU-Sim API: Stream Manager State
GPGPU-Sim: detected inactive GPU simulation thread
event update
GPGPU-Sim: synchronize waiting for inactive GPU simulation
GPGPU-Sim API: Stream Manager State
GPGPU-Sim: detected inactive GPU simulation thread
GPGPU-Sim PTX: Setting up arguments for 8 bytes starting at 0x7ffcb6264e28..
GPGPU-Sim PTX: Setting up arguments for 8 bytes starting at 0x7ffcb6264e20..
GPGPU-Sim PTX: Setting up arguments for 8 bytes starting at 0x7ffcb6264e18..
GPGPU-Sim PTX: Setting up arguments for 8 bytes starting at 0x7ffcb6264e10..
GPGPU-Sim PTX: Setting up arguments for 8 bytes starting at 0x7ffcb6264e08..
GPGPU-Sim PTX: Setting up arguments for 8 bytes starting at 0x7ffcb6264e00..
GPGPU-Sim PTX: Setting up arguments for 4 bytes starting at 0x7ffcb6264ec0..

GPGPU-Sim PTX: cudaLaunch for 0x0x403c31 (mode=performance simulation) on stream 0
GPGPU-Sim PTX: finding reconvergence points for '_Z13spmv_jds_nvm5PfPKfPKiS3_S1_S3_i'...
GPGPU-Sim PTX: Finding dominators for '_Z13spmv_jds_nvm5PfPKfPKiS3_S1_S3_i'...
GPGPU-Sim PTX: Finding immediate dominators for '_Z13spmv_jds_nvm5PfPKfPKiS3_S1_S3_i'...
GPGPU-Sim PTX: Finding postdominators for '_Z13spmv_jds_nvm5PfPKfPKiS3_S1_S3_i'...
GPGPU-Sim PTX: Finding immediate postdominators for '_Z13spmv_jds_nvm5PfPKfPKiS3_S1_S3_i'...
GPGPU-Sim PTX: pre-decoding instructions for '_Z13spmv_jds_nvm5PfPKfPKiS3_S1_S3_i'...
GPGPU-Sim PTX: reconvergence points for _Z13spmv_jds_nvm5PfPKfPKiS3_S1_S3_i...
GPGPU-Sim PTX:  1 (potential) branch divergence @  PC=0x3f50 (spmv.1.sm_70.ptx:2697) @%p2 bra BB9_2;
GPGPU-Sim PTX:    immediate post dominator      @  PC=0x3fc8 (spmv.1.sm_70.ptx:2721) setp.ge.s32%p3, %r3, %r13;
GPGPU-Sim PTX:  2 (potential) branch divergence @  PC=0x3fd0 (spmv.1.sm_70.ptx:2722) @%p3 bra BB9_20;
GPGPU-Sim PTX:    immediate post dominator      @  PC=0x4550 (spmv.1.sm_70.ptx:2933) setp.eq.s32%p1, %r16, %r21;
GPGPU-Sim PTX:  3 (potential) branch divergence @  PC=0x4078 (spmv.1.sm_70.ptx:2744) @%p4 bra BB9_19;
GPGPU-Sim PTX:    immediate post dominator      @  PC=0x44d8 (spmv.1.sm_70.ptx:2912) fma.rn.f32 %f38, %f46, %f47, %f44;
GPGPU-Sim PTX:  4 (potential) branch divergence @  PC=0x40d0 (spmv.1.sm_70.ptx:2756) @%p5 bra BB9_5;
GPGPU-Sim PTX:    immediate post dominator      @  PC=0x44c8 (spmv.1.sm_70.ptx:2908) ld.global.f32 %f46, [%rd127];
GPGPU-Sim PTX:  5 (potential) branch divergence @  PC=0x4108 (spmv.1.sm_70.ptx:2764) @%p6 bra BB9_7;
GPGPU-Sim PTX:    immediate post dominator      @  PC=0x4308 (spmv.1.sm_70.ptx:2847) setp.lt.u32%p9, %r47, 4;
GPGPU-Sim PTX:  6 (potential) branch divergence @  PC=0x4120 (spmv.1.sm_70.ptx:2768) @%p7 bra BB9_9;
GPGPU-Sim PTX:    immediate post dominator      @  PC=0x4278 (spmv.1.sm_70.ptx:2827) mul.wide.s32 %rd73, %r119, 4;
GPGPU-Sim PTX:  7 (potential) branch divergence @  PC=0x4128 (spmv.1.sm_70.ptx:2769) bra.uni BB9_10;
GPGPU-Sim PTX:    immediate post dominator      @  PC=0x4170 (spmv.1.sm_70.ptx:2786) setp.eq.s32%p8, %r48, 2;
GPGPU-Sim PTX:  8 (potential) branch divergence @  PC=0x4138 (spmv.1.sm_70.ptx:2773) bra.uni BB9_14;
GPGPU-Sim PTX:    immediate post dominator      @  PC=0x4278 (spmv.1.sm_70.ptx:2827) mul.wide.s32 %rd73, %r119, 4;
GPGPU-Sim PTX:  9 (potential) branch divergence @  PC=0x4150 (spmv.1.sm_70.ptx:2778) bra.uni BB9_18;
GPGPU-Sim PTX:    immediate post dominator      @  PC=0x44c8 (spmv.1.sm_70.ptx:2908) ld.global.f32 %f46, [%rd127];
GPGPU-Sim PTX: 10 (potential) branch divergence @  PC=0x4168 (spmv.1.sm_70.ptx:2783) bra.uni BB9_15;
GPGPU-Sim PTX:    immediate post dominator      @  PC=0x4308 (spmv.1.sm_70.ptx:2847) setp.lt.u32%p9, %r47, 4;
GPGPU-Sim PTX: 11 (potential) branch divergence @  PC=0x4180 (spmv.1.sm_70.ptx:2788) @%p8 bra BB9_11;
GPGPU-Sim PTX:    immediate post dominator      @  PC=0x4200 (spmv.1.sm_70.ptx:2810) mul.wide.u32 %rd64, %r118, 4;
GPGPU-Sim PTX: 12 (potential) branch divergence @  PC=0x4188 (spmv.1.sm_70.ptx:2789) bra.uni BB9_12;
GPGPU-Sim PTX:    immediate post dominator      @  PC=0x41a0 (spmv.1.sm_70.ptx:2796) ld.global.f32 %f21, [%rd2];
GPGPU-Sim PTX: 13 (potential) branch divergence @  PC=0x4198 (spmv.1.sm_70.ptx:2793) bra.uni BB9_13;
GPGPU-Sim PTX:    immediate post dominator      @  PC=0x4200 (spmv.1.sm_70.ptx:2810) mul.wide.u32 %rd64, %r118, 4;
GPGPU-Sim PTX: 14 (potential) branch divergence @  PC=0x4310 (spmv.1.sm_70.ptx:2848) @%p9 bra BB9_18;
GPGPU-Sim PTX:    immediate post dominator      @  PC=0x44c8 (spmv.1.sm_70.ptx:2908) ld.global.f32 %f46, [%rd127];
GPGPU-Sim PTX: 15 (potential) branch divergence @  PC=0x44c0 (spmv.1.sm_70.ptx:2905) @%p10 bra BB9_17;
GPGPU-Sim PTX:    immediate post dominator      @  PC=0x44c8 (spmv.1.sm_70.ptx:2908) ld.global.f32 %f46, [%rd127];
GPGPU-Sim PTX: 16 (potential) branch divergence @  PC=0x4560 (spmv.1.sm_70.ptx:2935) @!%p1 bra BB9_22;
GPGPU-Sim PTX:    immediate post dominator      @  PC=0x45e8 (spmv.1.sm_70.ptx:2962) ret;
GPGPU-Sim PTX: 17 (potential) branch divergence @  PC=0x4568 (spmv.1.sm_70.ptx:2936) bra.uni BB9_21;
GPGPU-Sim PTX:    immediate post dominator      @  PC=0x4570 (spmv.1.sm_70.ptx:2939) mov.u32 %r111, %ctaid.y;
GPGPU-Sim PTX: ... end of reconvergence points for _Z13spmv_jds_nvm5PfPKfPKiS3_S1_S3_i
GPGPU-Sim PTX: ... done pre-decoding instructions for '_Z13spmv_jds_nvm5PfPKfPKiS3_S1_S3_i'.
GPGPU-Sim PTX: pushing kernel '_Z13spmv_jds_nvm5PfPKfPKiS3_S1_S3_i' to stream 0, gridDim= (765,1,1) blockDim = (192,1,1) 
GPGPU-Sim uArch: Shader 0 bind to kernel 1 '_Z13spmv_jds_nvm5PfPKfPKiS3_S1_S3_i'
GPGPU-Sim uArch: CTA/core = 10, limited by: threads regs
GPGPU-Sim: Reconfigure L1 cache to 128KB
GPGPU-Sim uArch: Shader 1 bind to kernel 1 '_Z13spmv_jds_nvm5PfPKfPKiS3_S1_S3_i'
GPGPU-Sim uArch: Shader 2 bind to kernel 1 '_Z13spmv_jds_nvm5PfPKfPKiS3_S1_S3_i'
GPGPU-Sim uArch: Shader 3 bind to kernel 1 '_Z13spmv_jds_nvm5PfPKfPKiS3_S1_S3_i'
GPGPU-Sim uArch: Shader 4 bind to kernel 1 '_Z13spmv_jds_nvm5PfPKfPKiS3_S1_S3_i'
GPGPU-Sim uArch: Shader 5 bind to kernel 1 '_Z13spmv_jds_nvm5PfPKfPKiS3_S1_S3_i'
GPGPU-Sim uArch: Shader 6 bind to kernel 1 '_Z13spmv_jds_nvm5PfPKfPKiS3_S1_S3_i'
GPGPU-Sim uArch: Shader 7 bind to kernel 1 '_Z13spmv_jds_nvm5PfPKfPKiS3_S1_S3_i'
GPGPU-Sim uArch: Shader 8 bind to kernel 1 '_Z13spmv_jds_nvm5PfPKfPKiS3_S1_S3_i'
GPGPU-Sim uArch: Shader 9 bind to kernel 1 '_Z13spmv_jds_nvm5PfPKfPKiS3_S1_S3_i'
GPGPU-Sim uArch: Shader 10 bind to kernel 1 '_Z13spmv_jds_nvm5PfPKfPKiS3_S1_S3_i'
GPGPU-Sim uArch: Shader 11 bind to kernel 1 '_Z13spmv_jds_nvm5PfPKfPKiS3_S1_S3_i'
GPGPU-Sim uArch: Shader 12 bind to kernel 1 '_Z13spmv_jds_nvm5PfPKfPKiS3_S1_S3_i'
GPGPU-Sim uArch: Shader 13 bind to kernel 1 '_Z13spmv_jds_nvm5PfPKfPKiS3_S1_S3_i'
GPGPU-Sim uArch: Shader 14 bind to kernel 1 '_Z13spmv_jds_nvm5PfPKfPKiS3_S1_S3_i'
GPGPU-Sim uArch: Shader 15 bind to kernel 1 '_Z13spmv_jds_nvm5PfPKfPKiS3_S1_S3_i'
GPGPU-Sim uArch: Shader 16 bind to kernel 1 '_Z13spmv_jds_nvm5PfPKfPKiS3_S1_S3_i'
GPGPU-Sim uArch: Shader 17 bind to kernel 1 '_Z13spmv_jds_nvm5PfPKfPKiS3_S1_S3_i'
GPGPU-Sim uArch: Shader 18 bind to kernel 1 '_Z13spmv_jds_nvm5PfPKfPKiS3_S1_S3_i'
GPGPU-Sim uArch: Shader 19 bind to kernel 1 '_Z13spmv_jds_nvm5PfPKfPKiS3_S1_S3_i'
GPGPU-Sim uArch: Shader 20 bind to kernel 1 '_Z13spmv_jds_nvm5PfPKfPKiS3_S1_S3_i'
GPGPU-Sim uArch: Shader 21 bind to kernel 1 '_Z13spmv_jds_nvm5PfPKfPKiS3_S1_S3_i'
GPGPU-Sim uArch: Shader 22 bind to kernel 1 '_Z13spmv_jds_nvm5PfPKfPKiS3_S1_S3_i'
GPGPU-Sim uArch: Shader 23 bind to kernel 1 '_Z13spmv_jds_nvm5PfPKfPKiS3_S1_S3_i'
GPGPU-Sim uArch: Shader 24 bind to kernel 1 '_Z13spmv_jds_nvm5PfPKfPKiS3_S1_S3_i'
GPGPU-Sim uArch: Shader 25 bind to kernel 1 '_Z13spmv_jds_nvm5PfPKfPKiS3_S1_S3_i'
GPGPU-Sim uArch: Shader 26 bind to kernel 1 '_Z13spmv_jds_nvm5PfPKfPKiS3_S1_S3_i'
GPGPU-Sim uArch: Shader 27 bind to kernel 1 '_Z13spmv_jds_nvm5PfPKfPKiS3_S1_S3_i'
GPGPU-Sim uArch: Shader 28 bind to kernel 1 '_Z13spmv_jds_nvm5PfPKfPKiS3_S1_S3_i'
GPGPU-Sim uArch: Shader 29 bind to kernel 1 '_Z13spmv_jds_nvm5PfPKfPKiS3_S1_S3_i'
GPGPU-Sim uArch: Shader 30 bind to kernel 1 '_Z13spmv_jds_nvm5PfPKfPKiS3_S1_S3_i'
GPGPU-Sim uArch: Shader 31 bind to kernel 1 '_Z13spmv_jds_nvm5PfPKfPKiS3_S1_S3_i'
GPGPU-Sim uArch: Shader 32 bind to kernel 1 '_Z13spmv_jds_nvm5PfPKfPKiS3_S1_S3_i'
GPGPU-Sim uArch: Shader 33 bind to kernel 1 '_Z13spmv_jds_nvm5PfPKfPKiS3_S1_S3_i'
GPGPU-Sim uArch: Shader 34 bind to kernel 1 '_Z13spmv_jds_nvm5PfPKfPKiS3_S1_S3_i'
GPGPU-Sim uArch: Shader 35 bind to kernel 1 '_Z13spmv_jds_nvm5PfPKfPKiS3_S1_S3_i'
GPGPU-Sim uArch: Shader 36 bind to kernel 1 '_Z13spmv_jds_nvm5PfPKfPKiS3_S1_S3_i'
GPGPU-Sim uArch: Shader 37 bind to kernel 1 '_Z13spmv_jds_nvm5PfPKfPKiS3_S1_S3_i'
GPGPU-Sim uArch: Shader 38 bind to kernel 1 '_Z13spmv_jds_nvm5PfPKfPKiS3_S1_S3_i'
GPGPU-Sim uArch: Shader 39 bind to kernel 1 '_Z13spmv_jds_nvm5PfPKfPKiS3_S1_S3_i'
GPGPU-Sim uArch: Shader 40 bind to kernel 1 '_Z13spmv_jds_nvm5PfPKfPKiS3_S1_S3_i'
GPGPU-Sim uArch: Shader 41 bind to kernel 1 '_Z13spmv_jds_nvm5PfPKfPKiS3_S1_S3_i'
GPGPU-Sim uArch: Shader 42 bind to kernel 1 '_Z13spmv_jds_nvm5PfPKfPKiS3_S1_S3_i'
GPGPU-Sim uArch: Shader 43 bind to kernel 1 '_Z13spmv_jds_nvm5PfPKfPKiS3_S1_S3_i'
GPGPU-Sim uArch: Shader 44 bind to kernel 1 '_Z13spmv_jds_nvm5PfPKfPKiS3_S1_S3_i'
GPGPU-Sim uArch: Shader 45 bind to kernel 1 '_Z13spmv_jds_nvm5PfPKfPKiS3_S1_S3_i'
GPGPU-Sim uArch: Shader 46 bind to kernel 1 '_Z13spmv_jds_nvm5PfPKfPKiS3_S1_S3_i'
GPGPU-Sim uArch: Shader 47 bind to kernel 1 '_Z13spmv_jds_nvm5PfPKfPKiS3_S1_S3_i'
GPGPU-Sim uArch: Shader 48 bind to kernel 1 '_Z13spmv_jds_nvm5PfPKfPKiS3_S1_S3_i'
GPGPU-Sim uArch: Shader 49 bind to kernel 1 '_Z13spmv_jds_nvm5PfPKfPKiS3_S1_S3_i'
GPGPU-Sim uArch: Shader 50 bind to kernel 1 '_Z13spmv_jds_nvm5PfPKfPKiS3_S1_S3_i'
GPGPU-Sim uArch: Shader 51 bind to kernel 1 '_Z13spmv_jds_nvm5PfPKfPKiS3_S1_S3_i'
GPGPU-Sim uArch: Shader 52 bind to kernel 1 '_Z13spmv_jds_nvm5PfPKfPKiS3_S1_S3_i'
GPGPU-Sim uArch: Shader 53 bind to kernel 1 '_Z13spmv_jds_nvm5PfPKfPKiS3_S1_S3_i'
GPGPU-Sim uArch: Shader 54 bind to kernel 1 '_Z13spmv_jds_nvm5PfPKfPKiS3_S1_S3_i'
GPGPU-Sim uArch: Shader 55 bind to kernel 1 '_Z13spmv_jds_nvm5PfPKfPKiS3_S1_S3_i'
GPGPU-Sim uArch: Shader 56 bind to kernel 1 '_Z13spmv_jds_nvm5PfPKfPKiS3_S1_S3_i'
GPGPU-Sim uArch: Shader 57 bind to kernel 1 '_Z13spmv_jds_nvm5PfPKfPKiS3_S1_S3_i'
GPGPU-Sim uArch: Shader 58 bind to kernel 1 '_Z13spmv_jds_nvm5PfPKfPKiS3_S1_S3_i'
GPGPU-Sim uArch: Shader 59 bind to kernel 1 '_Z13spmv_jds_nvm5PfPKfPKiS3_S1_S3_i'
GPGPU-Sim uArch: Shader 60 bind to kernel 1 '_Z13spmv_jds_nvm5PfPKfPKiS3_S1_S3_i'
GPGPU-Sim uArch: Shader 61 bind to kernel 1 '_Z13spmv_jds_nvm5PfPKfPKiS3_S1_S3_i'
GPGPU-Sim uArch: Shader 62 bind to kernel 1 '_Z13spmv_jds_nvm5PfPKfPKiS3_S1_S3_i'
GPGPU-Sim uArch: Shader 63 bind to kernel 1 '_Z13spmv_jds_nvm5PfPKfPKiS3_S1_S3_i'
GPGPU-Sim uArch: Shader 64 bind to kernel 1 '_Z13spmv_jds_nvm5PfPKfPKiS3_S1_S3_i'
GPGPU-Sim uArch: Shader 65 bind to kernel 1 '_Z13spmv_jds_nvm5PfPKfPKiS3_S1_S3_i'
GPGPU-Sim uArch: Shader 66 bind to kernel 1 '_Z13spmv_jds_nvm5PfPKfPKiS3_S1_S3_i'
GPGPU-Sim uArch: Shader 67 bind to kernel 1 '_Z13spmv_jds_nvm5PfPKfPKiS3_S1_S3_i'
GPGPU-Sim uArch: Shader 68 bind to kernel 1 '_Z13spmv_jds_nvm5PfPKfPKiS3_S1_S3_i'
GPGPU-Sim uArch: Shader 69 bind to kernel 1 '_Z13spmv_jds_nvm5PfPKfPKiS3_S1_S3_i'
GPGPU-Sim uArch: Shader 70 bind to kernel 1 '_Z13spmv_jds_nvm5PfPKfPKiS3_S1_S3_i'
GPGPU-Sim uArch: Shader 71 bind to kernel 1 '_Z13spmv_jds_nvm5PfPKfPKiS3_S1_S3_i'
GPGPU-Sim uArch: Shader 72 bind to kernel 1 '_Z13spmv_jds_nvm5PfPKfPKiS3_S1_S3_i'
GPGPU-Sim uArch: Shader 73 bind to kernel 1 '_Z13spmv_jds_nvm5PfPKfPKiS3_S1_S3_i'
GPGPU-Sim uArch: Shader 74 bind to kernel 1 '_Z13spmv_jds_nvm5PfPKfPKiS3_S1_S3_i'
GPGPU-Sim uArch: Shader 75 bind to kernel 1 '_Z13spmv_jds_nvm5PfPKfPKiS3_S1_S3_i'
GPGPU-Sim uArch: Shader 76 bind to kernel 1 '_Z13spmv_jds_nvm5PfPKfPKiS3_S1_S3_i'
GPGPU-Sim uArch: Shader 77 bind to kernel 1 '_Z13spmv_jds_nvm5PfPKfPKiS3_S1_S3_i'
GPGPU-Sim uArch: Shader 78 bind to kernel 1 '_Z13spmv_jds_nvm5PfPKfPKiS3_S1_S3_i'
GPGPU-Sim uArch: Shader 79 bind to kernel 1 '_Z13spmv_jds_nvm5PfPKfPKiS3_S1_S3_i'
kernel_name = _Z13spmv_jds_nvm5PfPKfPKiS3_S1_S3_i 
kernel_launch_uid = 1 
gpu_sim_cycle = 37820
gpu_sim_insn = 40948866
gpu_ipc =    1082.7303
gpu_tot_sim_cycle = 37820
gpu_tot_sim_insn = 40948866
gpu_tot_ipc =    1082.7303
gpu_tot_issued_cta = 765
gpu_occupancy = 87.8070% 
gpu_tot_occupancy = 87.8070% 
max_total_param_size = 0
gpu_stall_dramfull = 275584
gpu_stall_icnt2sh    = 0
partiton_level_parallism =      22.8864
partiton_level_parallism_total  =      22.8864
partiton_level_parallism_util =      26.7611
partiton_level_parallism_util_total  =      26.7611
L2_BW  =     818.5666 GB/Sec
L2_BW_total  =     818.5666 GB/Sec
gpu_total_sim_rate=101358
############## bottleneck_stats #############
cycles: core 37820, icnt 37820, l2 37820, dram 28398
gpu_ipc	1082.730
gpu_tot_issued_cta = 765, average cycles = 49
n_dram_writes	 0, n_dram_reads	 0
n_GLOBAL_ACC_R	 662397 
n_LOCAL_ACC_R	 0 
n_CONST_ACC_R	 0 
n_TEXTURE_ACC_R	 0 
n_GLOBAL_ACC_W	 0 
n_LOCAL_ACC_W	 0 
n_L1_WRBK_ACC	 0 
n_L2_WRBK_ACC	 483 
n_L1_WR_ALLOC_R	 0 
n_L2_WR_ALLOC_R	 0 

n_sm	 80, n_schedulers	 4
scheduler util	0.110	80
L1D data util	1.275	80	1.449	3
L1D tag util	0.432	80	0.508	2
L2 data util	1.177	64	1.204	13
L2 tag util	0.410	64	0.581	3
n_l2_access	 991463
icnt s2m util	0.000	0	0.000	3	flits per packet: -nan
icnt m2s util	0.000	0	0.000	3	flits per packet: -nan
sum=0
n_mem	 32
dram util	0.730	32	0.737	1

latency_l1_hit:	8324000, num_l1_reqs:	416200
L1 hit latency:	20
latency_l2_hit:	84452251, num_l2_reqs:	180796
L2 hit latency:	467
latency_dram:	538026528, num_dram_reqs:	673518
DRAM latency:	798

n_reg	65536, n_smem	98304, n_thread	2048, n_tb	32
reg file	0.938
smem size	0.000
thread slot	0.938
TB slot    	0.312
L1I tag util	0.228	80	0.245	32

n_mem_pipe	1, n_sp_pipe	4, n_sfu_pipe	4
mem pipe util	0.122	80	0.131	32
sp pipe util	0.000	0	0.000	32
sfu pipe util	0.000	0	0.000	32
ldst mem cycle	0.003	80	0.004	23

smem port	0.000	0

n_reg_bank	16
reg port	0.075	16	0.094	14
L1D tag util	0.432	80	0.508	2
L1D fill util	0.276	80	0.312	0
n_l1d_mshr	4096
L1D mshr util	0.048	80
n_l1d_missq	16
L1D missq util	0.018	80
L1D hit rate	0.318
L1D miss rate	0.682
L1D rsfail rate	0.000
L2 tag util	0.410	64	0.581	3
L2 fill util	0.273	64	0.278	1
n_l2_mshr	192
n_l2_missq	32
L2 mshr util	0.584	64	0.757	10
L2 missq util	0.009	64	0.009	13
L2 hit rate	0.183
L2 miss rate	0.685
L2 rsfail rate	0.133

dram activity	0.816	32	0.830	16

load trans eff	0.606
load trans sz	32.000
load_useful_bytes 25174376, load_transaction_bytes 41565280, icnt_m2s_bytes 0
n_gmem_load_insns 245780, n_gmem_load_accesses 1298915
n_smem_access_insn 0, n_smem_accesses 0

tmp_counter/12	0.410

run 0.010, fetch 0.000, sync 0.033, control 0.000, data 0.953, struct 0.004
############ end_bottleneck_stats #############

========= Core cache stats =========
L1I_cache:
	L1I_total_cache_accesses = 0
	L1I_total_cache_misses = 0
	L1I_total_cache_pending_hits = 0
	L1I_total_cache_reservation_fails = 0
L1D_cache:
	L1D_cache_core[0]: Access = 18728, Miss = 12612, Miss_rate = 0.673, Pending_hits = 0, Reservation_fails = 0
	L1D_cache_core[1]: Access = 18971, Miss = 12359, Miss_rate = 0.651, Pending_hits = 0, Reservation_fails = 0
	L1D_cache_core[2]: Access = 19212, Miss = 11868, Miss_rate = 0.618, Pending_hits = 0, Reservation_fails = 0
	L1D_cache_core[3]: Access = 19187, Miss = 12340, Miss_rate = 0.643, Pending_hits = 0, Reservation_fails = 0
	L1D_cache_core[4]: Access = 18207, Miss = 12288, Miss_rate = 0.675, Pending_hits = 0, Reservation_fails = 0
	L1D_cache_core[5]: Access = 18039, Miss = 12081, Miss_rate = 0.670, Pending_hits = 0, Reservation_fails = 0
	L1D_cache_core[6]: Access = 18120, Miss = 11952, Miss_rate = 0.660, Pending_hits = 0, Reservation_fails = 0
	L1D_cache_core[7]: Access = 18356, Miss = 12224, Miss_rate = 0.666, Pending_hits = 0, Reservation_fails = 0
	L1D_cache_core[8]: Access = 17439, Miss = 11614, Miss_rate = 0.666, Pending_hits = 0, Reservation_fails = 0
	L1D_cache_core[9]: Access = 17648, Miss = 11592, Miss_rate = 0.657, Pending_hits = 0, Reservation_fails = 0
	L1D_cache_core[10]: Access = 17834, Miss = 11875, Miss_rate = 0.666, Pending_hits = 0, Reservation_fails = 0
	L1D_cache_core[11]: Access = 17817, Miss = 11834, Miss_rate = 0.664, Pending_hits = 0, Reservation_fails = 0
	L1D_cache_core[12]: Access = 18384, Miss = 12186, Miss_rate = 0.663, Pending_hits = 0, Reservation_fails = 0
	L1D_cache_core[13]: Access = 17259, Miss = 11255, Miss_rate = 0.652, Pending_hits = 0, Reservation_fails = 0
	L1D_cache_core[14]: Access = 18065, Miss = 11702, Miss_rate = 0.648, Pending_hits = 0, Reservation_fails = 0
	L1D_cache_core[15]: Access = 17462, Miss = 11526, Miss_rate = 0.660, Pending_hits = 0, Reservation_fails = 0
	L1D_cache_core[16]: Access = 17485, Miss = 11681, Miss_rate = 0.668, Pending_hits = 0, Reservation_fails = 0
	L1D_cache_core[17]: Access = 17412, Miss = 11678, Miss_rate = 0.671, Pending_hits = 0, Reservation_fails = 0
	L1D_cache_core[18]: Access = 17296, Miss = 11231, Miss_rate = 0.649, Pending_hits = 0, Reservation_fails = 0
	L1D_cache_core[19]: Access = 17542, Miss = 11576, Miss_rate = 0.660, Pending_hits = 0, Reservation_fails = 0
	L1D_cache_core[20]: Access = 17198, Miss = 11334, Miss_rate = 0.659, Pending_hits = 0, Reservation_fails = 0
	L1D_cache_core[21]: Access = 17771, Miss = 12048, Miss_rate = 0.678, Pending_hits = 0, Reservation_fails = 0
	L1D_cache_core[22]: Access = 17235, Miss = 11541, Miss_rate = 0.670, Pending_hits = 0, Reservation_fails = 0
	L1D_cache_core[23]: Access = 16824, Miss = 11457, Miss_rate = 0.681, Pending_hits = 0, Reservation_fails = 0
	L1D_cache_core[24]: Access = 15762, Miss = 10557, Miss_rate = 0.670, Pending_hits = 0, Reservation_fails = 0
	L1D_cache_core[25]: Access = 16531, Miss = 11302, Miss_rate = 0.684, Pending_hits = 0, Reservation_fails = 0
	L1D_cache_core[26]: Access = 16793, Miss = 11562, Miss_rate = 0.689, Pending_hits = 0, Reservation_fails = 0
	L1D_cache_core[27]: Access = 16056, Miss = 10950, Miss_rate = 0.682, Pending_hits = 0, Reservation_fails = 0
	L1D_cache_core[28]: Access = 16222, Miss = 10892, Miss_rate = 0.671, Pending_hits = 0, Reservation_fails = 0
	L1D_cache_core[29]: Access = 16238, Miss = 11070, Miss_rate = 0.682, Pending_hits = 0, Reservation_fails = 0
	L1D_cache_core[30]: Access = 16531, Miss = 11179, Miss_rate = 0.676, Pending_hits = 0, Reservation_fails = 0
	L1D_cache_core[31]: Access = 16469, Miss = 11127, Miss_rate = 0.676, Pending_hits = 0, Reservation_fails = 0
	L1D_cache_core[32]: Access = 17223, Miss = 12042, Miss_rate = 0.699, Pending_hits = 0, Reservation_fails = 0
	L1D_cache_core[33]: Access = 16437, Miss = 11591, Miss_rate = 0.705, Pending_hits = 0, Reservation_fails = 0
	L1D_cache_core[34]: Access = 15880, Miss = 11643, Miss_rate = 0.733, Pending_hits = 0, Reservation_fails = 0
	L1D_cache_core[35]: Access = 16126, Miss = 11891, Miss_rate = 0.737, Pending_hits = 0, Reservation_fails = 0
	L1D_cache_core[36]: Access = 16453, Miss = 12290, Miss_rate = 0.747, Pending_hits = 0, Reservation_fails = 0
	L1D_cache_core[37]: Access = 16068, Miss = 11945, Miss_rate = 0.743, Pending_hits = 0, Reservation_fails = 0
	L1D_cache_core[38]: Access = 16169, Miss = 11670, Miss_rate = 0.722, Pending_hits = 0, Reservation_fails = 0
	L1D_cache_core[39]: Access = 16982, Miss = 11881, Miss_rate = 0.700, Pending_hits = 0, Reservation_fails = 0
	L1D_cache_core[40]: Access = 15499, Miss = 11507, Miss_rate = 0.742, Pending_hits = 0, Reservation_fails = 0
	L1D_cache_core[41]: Access = 16485, Miss = 11851, Miss_rate = 0.719, Pending_hits = 0, Reservation_fails = 0
	L1D_cache_core[42]: Access = 16478, Miss = 11982, Miss_rate = 0.727, Pending_hits = 0, Reservation_fails = 0
	L1D_cache_core[43]: Access = 16332, Miss = 12108, Miss_rate = 0.741, Pending_hits = 0, Reservation_fails = 0
	L1D_cache_core[44]: Access = 15808, Miss = 10916, Miss_rate = 0.691, Pending_hits = 0, Reservation_fails = 0
	L1D_cache_core[45]: Access = 14820, Miss = 9849, Miss_rate = 0.665, Pending_hits = 0, Reservation_fails = 0
	L1D_cache_core[46]: Access = 15417, Miss = 10429, Miss_rate = 0.676, Pending_hits = 0, Reservation_fails = 0
	L1D_cache_core[47]: Access = 15196, Miss = 10332, Miss_rate = 0.680, Pending_hits = 0, Reservation_fails = 0
	L1D_cache_core[48]: Access = 15121, Miss = 10388, Miss_rate = 0.687, Pending_hits = 0, Reservation_fails = 0
	L1D_cache_core[49]: Access = 15347, Miss = 10283, Miss_rate = 0.670, Pending_hits = 0, Reservation_fails = 0
	L1D_cache_core[50]: Access = 15374, Miss = 10493, Miss_rate = 0.683, Pending_hits = 0, Reservation_fails = 0
	L1D_cache_core[51]: Access = 15338, Miss = 10412, Miss_rate = 0.679, Pending_hits = 0, Reservation_fails = 0
	L1D_cache_core[52]: Access = 15461, Miss = 10650, Miss_rate = 0.689, Pending_hits = 0, Reservation_fails = 0
	L1D_cache_core[53]: Access = 15370, Miss = 10449, Miss_rate = 0.680, Pending_hits = 0, Reservation_fails = 0
	L1D_cache_core[54]: Access = 15291, Miss = 10237, Miss_rate = 0.669, Pending_hits = 0, Reservation_fails = 0
	L1D_cache_core[55]: Access = 15856, Miss = 10679, Miss_rate = 0.673, Pending_hits = 0, Reservation_fails = 0
	L1D_cache_core[56]: Access = 14782, Miss = 10211, Miss_rate = 0.691, Pending_hits = 0, Reservation_fails = 0
	L1D_cache_core[57]: Access = 15514, Miss = 10817, Miss_rate = 0.697, Pending_hits = 0, Reservation_fails = 0
	L1D_cache_core[58]: Access = 15526, Miss = 10805, Miss_rate = 0.696, Pending_hits = 0, Reservation_fails = 0
	L1D_cache_core[59]: Access = 15782, Miss = 10818, Miss_rate = 0.685, Pending_hits = 0, Reservation_fails = 0
	L1D_cache_core[60]: Access = 15422, Miss = 10575, Miss_rate = 0.686, Pending_hits = 0, Reservation_fails = 0
	L1D_cache_core[61]: Access = 15180, Miss = 10278, Miss_rate = 0.677, Pending_hits = 0, Reservation_fails = 0
	L1D_cache_core[62]: Access = 15185, Miss = 10408, Miss_rate = 0.685, Pending_hits = 0, Reservation_fails = 0
	L1D_cache_core[63]: Access = 15384, Miss = 10646, Miss_rate = 0.692, Pending_hits = 0, Reservation_fails = 0
	L1D_cache_core[64]: Access = 15497, Miss = 10869, Miss_rate = 0.701, Pending_hits = 0, Reservation_fails = 0
	L1D_cache_core[65]: Access = 14861, Miss = 10036, Miss_rate = 0.675, Pending_hits = 0, Reservation_fails = 0
	L1D_cache_core[66]: Access = 15176, Miss = 10148, Miss_rate = 0.669, Pending_hits = 0, Reservation_fails = 0
	L1D_cache_core[67]: Access = 15458, Miss = 10490, Miss_rate = 0.679, Pending_hits = 0, Reservation_fails = 0
	L1D_cache_core[68]: Access = 15434, Miss = 10705, Miss_rate = 0.694, Pending_hits = 0, Reservation_fails = 0
	L1D_cache_core[69]: Access = 15017, Miss = 10405, Miss_rate = 0.693, Pending_hits = 0, Reservation_fails = 0
	L1D_cache_core[70]: Access = 15374, Miss = 10363, Miss_rate = 0.674, Pending_hits = 0, Reservation_fails = 0
	L1D_cache_core[71]: Access = 15764, Miss = 10792, Miss_rate = 0.685, Pending_hits = 0, Reservation_fails = 0
	L1D_cache_core[72]: Access = 14364, Miss = 9596, Miss_rate = 0.668, Pending_hits = 0, Reservation_fails = 0
	L1D_cache_core[73]: Access = 15397, Miss = 10386, Miss_rate = 0.675, Pending_hits = 0, Reservation_fails = 0
	L1D_cache_core[74]: Access = 15450, Miss = 10530, Miss_rate = 0.682, Pending_hits = 0, Reservation_fails = 0
	L1D_cache_core[75]: Access = 15244, Miss = 10608, Miss_rate = 0.696, Pending_hits = 0, Reservation_fails = 0
	L1D_cache_core[76]: Access = 15580, Miss = 10672, Miss_rate = 0.685, Pending_hits = 0, Reservation_fails = 0
	L1D_cache_core[77]: Access = 14773, Miss = 10143, Miss_rate = 0.687, Pending_hits = 0, Reservation_fails = 0
	L1D_cache_core[78]: Access = 15569, Miss = 10552, Miss_rate = 0.678, Pending_hits = 0, Reservation_fails = 0
	L1D_cache_core[79]: Access = 15623, Miss = 10916, Miss_rate = 0.699, Pending_hits = 0, Reservation_fails = 0
	L1D_total_cache_accesses = 1307980
	L1D_total_cache_misses = 891780
	L1D_total_cache_miss_rate = 0.6818
	L1D_total_cache_pending_hits = 0
	L1D_total_cache_reservation_fails = 0
	L1D_cache_data_port_util = 0.159
	L1D_cache_fill_port_util = 0.318
L1C_cache:
	L1C_total_cache_accesses = 0
	L1C_total_cache_misses = 0
	L1C_total_cache_pending_hits = 0
	L1C_total_cache_reservation_fails = 0
L1T_cache:
	L1T_total_cache_accesses = 0
	L1T_total_cache_misses = 0
	L1T_total_cache_pending_hits = 0
	L1T_total_cache_reservation_fails = 0

Total_core_cache_stats:
	Total_core_cache_stats_breakdown[GLOBAL_ACC_R][HIT] = 416200
	Total_core_cache_stats_breakdown[GLOBAL_ACC_R][HIT_RESERVED] = 0
	Total_core_cache_stats_breakdown[GLOBAL_ACC_R][MISS] = 788794
	Total_core_cache_stats_breakdown[GLOBAL_ACC_R][RESERVATION_FAIL] = 0
	Total_core_cache_stats_breakdown[GLOBAL_ACC_R][SECTOR_MISS] = 92113
	Total_core_cache_stats_breakdown[LOCAL_ACC_R][HIT] = 0
	Total_core_cache_stats_breakdown[LOCAL_ACC_R][HIT_RESERVED] = 0
	Total_core_cache_stats_breakdown[LOCAL_ACC_R][MISS] = 0
	Total_core_cache_stats_breakdown[LOCAL_ACC_R][RESERVATION_FAIL] = 0
	Total_core_cache_stats_breakdown[LOCAL_ACC_R][SECTOR_MISS] = 0
	Total_core_cache_stats_breakdown[CONST_ACC_R][HIT] = 0
	Total_core_cache_stats_breakdown[CONST_ACC_R][HIT_RESERVED] = 0
	Total_core_cache_stats_breakdown[CONST_ACC_R][MISS] = 0
	Total_core_cache_stats_breakdown[CONST_ACC_R][RESERVATION_FAIL] = 0
	Total_core_cache_stats_breakdown[CONST_ACC_R][SECTOR_MISS] = 0
	Total_core_cache_stats_breakdown[TEXTURE_ACC_R][HIT] = 0
	Total_core_cache_stats_breakdown[TEXTURE_ACC_R][HIT_RESERVED] = 0
	Total_core_cache_stats_breakdown[TEXTURE_ACC_R][MISS] = 0
	Total_core_cache_stats_breakdown[TEXTURE_ACC_R][RESERVATION_FAIL] = 0
	Total_core_cache_stats_breakdown[TEXTURE_ACC_R][SECTOR_MISS] = 0
	Total_core_cache_stats_breakdown[GLOBAL_ACC_W][HIT] = 0
	Total_core_cache_stats_breakdown[GLOBAL_ACC_W][HIT_RESERVED] = 0
	Total_core_cache_stats_breakdown[GLOBAL_ACC_W][MISS] = 10873
	Total_core_cache_stats_breakdown[GLOBAL_ACC_W][RESERVATION_FAIL] = 0
	Total_core_cache_stats_breakdown[GLOBAL_ACC_W][SECTOR_MISS] = 0
	Total_core_cache_stats_breakdown[LOCAL_ACC_W][HIT] = 0
	Total_core_cache_stats_breakdown[LOCAL_ACC_W][HIT_RESERVED] = 0
	Total_core_cache_stats_breakdown[LOCAL_ACC_W][MISS] = 0
	Total_core_cache_stats_breakdown[LOCAL_ACC_W][RESERVATION_FAIL] = 0
	Total_core_cache_stats_breakdown[LOCAL_ACC_W][SECTOR_MISS] = 0
	Total_core_cache_stats_breakdown[L1_WRBK_ACC][HIT] = 0
	Total_core_cache_stats_breakdown[L1_WRBK_ACC][HIT_RESERVED] = 0
	Total_core_cache_stats_breakdown[L1_WRBK_ACC][MISS] = 0
	Total_core_cache_stats_breakdown[L1_WRBK_ACC][RESERVATION_FAIL] = 0
	Total_core_cache_stats_breakdown[L1_WRBK_ACC][SECTOR_MISS] = 0
	Total_core_cache_stats_breakdown[L2_WRBK_ACC][HIT] = 0
	Total_core_cache_stats_breakdown[L2_WRBK_ACC][HIT_RESERVED] = 0
	Total_core_cache_stats_breakdown[L2_WRBK_ACC][MISS] = 0
	Total_core_cache_stats_breakdown[L2_WRBK_ACC][RESERVATION_FAIL] = 0
	Total_core_cache_stats_breakdown[L2_WRBK_ACC][SECTOR_MISS] = 0
	Total_core_cache_stats_breakdown[INST_ACC_R][HIT] = 0
	Total_core_cache_stats_breakdown[INST_ACC_R][HIT_RESERVED] = 0
	Total_core_cache_stats_breakdown[INST_ACC_R][MISS] = 0
	Total_core_cache_stats_breakdown[INST_ACC_R][RESERVATION_FAIL] = 0
	Total_core_cache_stats_breakdown[INST_ACC_R][SECTOR_MISS] = 0
	Total_core_cache_stats_breakdown[L1_WR_ALLOC_R][HIT] = 0
	Total_core_cache_stats_breakdown[L1_WR_ALLOC_R][HIT_RESERVED] = 0
	Total_core_cache_stats_breakdown[L1_WR_ALLOC_R][MISS] = 0
	Total_core_cache_stats_breakdown[L1_WR_ALLOC_R][RESERVATION_FAIL] = 0
	Total_core_cache_stats_breakdown[L1_WR_ALLOC_R][SECTOR_MISS] = 0
	Total_core_cache_stats_breakdown[L2_WR_ALLOC_R][HIT] = 0
	Total_core_cache_stats_breakdown[L2_WR_ALLOC_R][HIT_RESERVED] = 0
	Total_core_cache_stats_breakdown[L2_WR_ALLOC_R][MISS] = 0
	Total_core_cache_stats_breakdown[L2_WR_ALLOC_R][RESERVATION_FAIL] = 0
	Total_core_cache_stats_breakdown[L2_WR_ALLOC_R][SECTOR_MISS] = 0
	Total_core_cache_stats_breakdown[GLOBAL_ACC_R][TOTAL_ACCESS] = 1297107
	Total_core_cache_stats_breakdown[GLOBAL_ACC_W][TOTAL_ACCESS] = 10873

Total_core_cache_fail_stats:
Shader 0 warp_id issue ditsribution:
warp_id:
0, 1, 2, 3, 4, 5, 6, 7, 8, 9, 10, 11, 12, 13, 14, 15, 16, 17, 18, 19, 20, 21, 22, 23, 24, 25, 26, 27, 28, 29, 30, 31, 32, 33, 34, 35, 36, 37, 38, 39, 40, 41, 42, 43, 44, 45, 46, 47, 48, 49, 50, 51, 52, 53, 54, 55, 56, 57, 58, 59, 
distro:
271, 272, 250, 261, 272, 294, 301, 305, 298, 298, 283, 298, 308, 298, 298, 294, 298, 298, 290, 309, 276, 287, 283, 309, 286, 272, 272, 276, 294, 309, 301, 287, 276, 294, 287, 309, 306, 276, 276, 276, 276, 276, 292, 276, 274, 276, 274, 275, 305, 276, 276, 276, 276, 276, 306, 276, 276, 276, 276, 276, 
gpgpu_n_tot_thrd_icount = 42387232
gpgpu_n_tot_w_icount = 1324601
gpgpu_n_stall_shd_mem = 1066095
gpgpu_n_mem_read_local = 0
gpgpu_n_mem_write_local = 0
gpgpu_n_mem_read_global = 849140
gpgpu_n_mem_write_global = 19877
gpgpu_n_mem_texture = 0
gpgpu_n_mem_const = 0
gpgpu_n_load_insn  = 7861117
gpgpu_n_store_insn = 129802
gpgpu_n_shmem_insn = 0
gpgpu_n_sstarr_insn = 0
gpgpu_n_tex_insn = 0
gpgpu_n_const_mem_insn = 2806314
gpgpu_n_param_mem_insn = 881280
gpgpu_n_shmem_bkconflict = 0
gpgpu_n_cache_bkconflict = 0
gpgpu_n_intrawarp_mshr_merge = 0
gpgpu_n_cmem_portconflict = 0
gpgpu_stall_shd_mem[c_mem][resource_stall] = 0
gpgpu_stall_shd_mem[s_mem][bk_conf] = 0
gpgpu_stall_shd_mem[gl_mem][resource_stall] = 1060125
gpgpu_stall_shd_mem[gl_mem][coal_stall] = 5970
gpgpu_stall_shd_mem[gl_mem][data_port_stall] = 0
gpu_reg_bank_conflict_stalls = 0
Warp Occupancy Distribution:
Stall:135910	W0_Idle:400	W0_Scoreboard:9037842	W1:15370	W2:0	W3:0	W4:0	W5:0	W6:0	W7:0	W8:0	W9:0	W10:0	W11:0	W12:0	W13:0	W14:0	W15:0	W16:0	W17:0	W18:0	W19:0	W20:0	W21:0	W22:0	W23:0	W24:0	W25:0	W26:0	W27:0	W28:0	W29:0	W30:0	W31:0	W32:1312558
single_issue_nums: WS0:340792	WS1:334144	WS2:329947	WS3:323045	
dual_issue_nums: WS0:0	WS1:0	WS2:0	WS3:0	
traffic_breakdown_coretomem[GLOBAL_ACC_R] = 6793120 {8:849140,}
traffic_breakdown_coretomem[GLOBAL_ACC_W] = 506920 {8:9005,40:10872,}
traffic_breakdown_memtocore[GLOBAL_ACC_R] = 33393160 {40:834829,}
traffic_breakdown_memtocore[GLOBAL_ACC_W] = 156560 {8:19570,}
maxmflatency = 4467 
max_icnt2mem_latency = 3474 
maxmrqlatency = 2164 
max_icnt2sh_latency = 117 
averagemflatency = 730 
avg_icnt2mem_latency = 201 
avg_mrq_latency = 62 
avg_icnt2sh_latency = 3 
mrq_lat_table:42384 	38960 	43065 	60755 	79300 	165094 	145935 	70589 	14919 	1123 	199 	14 	0 	0 	0 	0 	0 	0 	0 	0 	0 	0 	0 	0 	0 	0 	0 	0 	0 	0 	0 	0 	
dq_lat_table:0 	0 	0 	0 	0 	0 	0 	0 	0 	0 	0 	0 	0 	0 	0 	0 	0 	0 	0 	0 	0 	0 	0 	0 	0 	0 	0 	0 	0 	0 	0 	0 	
mf_lat_table:0 	0 	0 	0 	0 	0 	0 	77268 	206154 	413345 	144733 	12844 	16 	0 	0 	0 	0 	0 	0 	0 	0 	0 	0 	0 	0 	0 	0 	0 	0 	0 	0 	0 	
icnt2mem_lat_table:0 	347 	257 	309 	399126 	100371 	62064 	91840 	106378 	75861 	27370 	1639 	0 	0 	0 	0 	0 	0 	0 	0 	0 	0 	0 	0 	
icnt2sh_lat_table:0 	669020 	118962 	41675 	18268 	5674 	761 	0 	0 	0 	0 	0 	0 	0 	0 	0 	0 	0 	0 	0 	0 	0 	0 	0 	
mf_lat_pw_table:0 	0 	0 	0 	0 	0 	0 	0 	2 	58 	4 	0 	0 	0 	0 	0 	0 	0 	0 	0 	0 	0 	0 	0 	0 	0 	0 	0 	0 	0 	0 	0 	
maximum concurrent accesses to same row:
dram[0]:        64        64        64        64        64        64        64        64        52        60        64        64        64        64        64        64 
dram[1]:        64        64        64        64        64        64        64        64        60        60        64        64        64        64        64        64 
dram[2]:        64        64        64        64        64        64        64        64        64        52        64        64        64        64        64        64 
dram[3]:        64        64        64        64        64        64        64        64        52        56        64        64        64        64        64        64 
dram[4]:        64        64        64        64        64        64        64        64        64        60        64        64        64        64        64        64 
dram[5]:        64        64        64        64        64        64        64        64        64        56        64        64        64        64        64        64 
dram[6]:        64        64        64        64        64        64        64        64        60        64        64        64        64        64        64        64 
dram[7]:        64        64        64        64        64        64        64        64        64        64        64        64        64        64        64        64 
dram[8]:        64        64        64        64        64        64        64        64        64        64        64        64        64        64        64        64 
dram[9]:        64        64        64        64        64        64        64        64        56        60        64        64        64        64        64        64 
dram[10]:        64        64        64        64        64        64        64        64        52        60        64        64        64        64        64        64 
dram[11]:        64        64        52        64        64        64        64        64        60        64        64        64        64        64        64        64 
dram[12]:        64        64        48        64        64        64        64        64        64        56        64        64        64        64        64        64 
dram[13]:        64        64        60        64        64        64        64        64        64        64        64        64        64        64        64        64 
dram[14]:        64        64        60        64        64        64        64        64        64        64        64        64        64        64        64        64 
dram[15]:        64        64        64        64        64        64        64        64        64        52        64        64        64        64        64        64 
dram[16]:        60        64        64        64        64        64        64        56        64        64        64        64        64        64        64        64 
dram[17]:        64        64        56        64        64        64        64        64        64        60        64        64        64        64        64        64 
dram[18]:        64        64        64        64        64        64        64        64        64        60        64        64        64        64        64        64 
dram[19]:        64        64        64        64        64        64        64        64        52        64        57        64        60        64        64        64 
dram[20]:        64        64        64        64        64        64        64        64        64        60        64        64        64        64        64        64 
dram[21]:        60        64        64        64        64        64        64        64        64        56        64        60        60        64        64        64 
dram[22]:        60        64        64        64        64        64        64        64        64        64        64        60        64        64        64        64 
dram[23]:        64        64        64        64        64        64        64        64        64        64        64        64        64        64        64        64 
dram[24]:        61        60        64        64        64        64        64        64        60        64        64        64        64        64        64        64 
dram[25]:        60        64        64        64        64        64        64        64        52        64        60        64        64        64        64        64 
dram[26]:        64        64        64        64        64        64        64        64        56        56        56        60        64        64        64        64 
dram[27]:        64        64        64        64        64        64        60        64        48        64        60        64        64        64        64        64 
dram[28]:        64        64        64        64        64        64        64        64        52        52        56        64        56        64        64        64 
dram[29]:        64        64        64        64        64        64        64        64        56        64        64        64        64        64        64        64 
dram[30]:        64        64        64        64        64        64        64        64        56        56        64        64        64        64        64        64 
dram[31]:        64        64        64        64        64        64        64        64        56        64        64        64        64        64        64        64 
maximum service time to same row:
dram[0]:      5900      5927      6225      6152      6486      6448      6783      6765      7111      7003      7303      7420      7608      7514      5949      5985 
dram[1]:      5879      5880      6537      6549      6911      7204      7490      7556      7843      7778      8012      8195      8424      8339      5983      5956 
dram[2]:      5891      5892      6541      6522      6730      6645      6842      7577      7592      7524      7897      8199      8107      8534      5953      5940 
dram[3]:      5902      5888      6136      6119      6718      6663      7263      7424      7448      8054      8273      8485      8380      8913      5959      5960 
dram[4]:      5880      5882      6155      6124      6249      6710      7032      6936      7553      8175      8196      8498      8435      8726      5989      5959 
dram[5]:      5892      5891      6171      6093      6240      6365      7047      7070      7630      7830      8048      8207      8233      8399      5955      5944 
dram[6]:      5903      5890      6152      6048      6260      6342      6537      7024      7211      7212      8203      8335      8236      8636      5957      6032 
dram[7]:      5882      5883      6152      6015      6262      6340      6510      6501      7159      7634      8015      8361      8355      8637      5964      6052 
dram[8]:      5879      5892      6152      6031      6197      6393      6659      6539      7156      7807      8036      8590      8215      8772      5952      6004 
dram[9]:      5872      5891      6181      6115      6225      6357      6750      6465      6751      7512      7954      8644      8513      8625      5968      5980 
dram[10]:      5883      5884      6236      6148      6381      6449      6693      6553      6790      7417      7698      8253      8256      8279      5969      5960 
dram[11]:      5880      5894      6113      6176      6401      6302      6758      6677      6912      6986      7291      7388      7568      7469      5953      5945 
dram[12]:      5874      5891      6125      6171      6462      6276      6771      6603      6902      7042      7541      7488      7640      7726      5969      5981 
dram[13]:      5883      5884      6128      6155      6385      6300      6759      6651      6850      6971      7562      7474      7647      7825      5971      5961 
dram[14]:      5882      5894      6171      6172      6429      6393      6735      6665      6822      6983      7549      7313      7394      7838      5977      5944 
dram[15]:      5875      5907      6175      6176      6426      6340      6683      6663      6934      6988      7370      7336      7444      7568      5949      5983 
dram[16]:      5883      5886      6245      6111      6417      6397      6787      6711      7067      7048      7370      7372      7542      7522      5930      5969 
dram[17]:      5883      5895      6109      6132      6356      6264      6645      6653      7076      6884      7420      7321      7653      7574      5949      5940 
dram[18]:      5875      5894      6103      6160      6289      6321      6650      6517      6974      6883      7252      7386      7582      7425      5953      5980 
dram[19]:      5884      5887      6139      6144      6298      6338      6642      6607      6830      6816      7497      7569      7699      7701      5931      5976 
dram[20]:      5883      5895      6133      6148      6342      6322      6593      6651      6834      6910      7396      7425      7581      7553      5953      5943 
dram[21]:      5876      5894      6131      6164      6376      6253      6609      6697      6954      6891      7323      7362      7572      7445      5955      5979 
dram[22]:      5886      5887      6097      6165      6361      6260      6617      6681      6834      6908      7520      7521      7948      7502      5932      5984 
dram[23]:      5884      5896      6101      6184      6318      6386      6645      6587      6839      6864      7677      7490      7847      7630      5977      6011 
dram[24]:      5878      5875      6153      6165      6308      6288      6595      6559      6822      6867      7666      7438      7811      7569      5959      5993 
dram[25]:      5887      5888      6129      6139      6286      6337      6635      6645      6908      6936      7410      7498      7642      7671      5943      5996 
dram[26]:      5886      5898      6159      6143      6332      6502      6661      6638      6894      7048      7409      7389      7650      7536      5963      5951 
dram[27]:      5879      5876      6183      6152      6348      6506      6682      6663      6923      7112      7474      7252      7739      7562      5957      5981 
dram[28]:      5887      5890      6205      6149      6408      6545      6705      6778      6984      6970      7522      7472      7750      7718      5947      5981 
dram[29]:      5887      5899      6179      6144      6406      6432      6607      6741      7036      6879      7604      7348      7608      7742      5964      5945 
dram[30]:      5879      5878      6633      6541      6903      6691      7052      7215      7476      7261      7793      7830      8024      7903      6376      6373 
dram[31]:      5923      5890      6630      6562      7076      6762      7172      7173      7666      7264      7970      7870      8220      7952      6348      6340 
average row accesses per activate:
dram[0]: 12.333333 13.571428 10.290076 12.777778 11.408695 11.927928 11.333333 13.171718 10.565574 13.252525 11.825688 12.557693 10.360656 13.319588 12.310679 13.956522 
dram[1]: 13.791667 12.385321 12.263637 12.000000 12.155963 12.000000 11.759259 11.468469 11.535714 12.807693 10.149607 11.000000 11.185841 12.403846 12.907216 14.516854 
dram[2]: 16.296297 14.554348 13.404040 12.109091 13.212121 13.360825 12.384615 11.709091 12.160378 12.823529 12.461538 10.417323 11.710280 12.929293 16.684210 13.802197 
dram[3]: 17.706667 14.835165 16.475609 12.218182 15.740741 13.802197 14.383721 10.956141 13.030928 11.576576 15.370370 10.216000 12.410000 14.571428 17.166666 12.653061 
dram[4]: 15.272727 15.344444 14.739130 12.685185 13.978495 12.504854 14.247191 10.788136 11.672728 11.628319 10.491803 12.831683 12.460784 10.905983 13.147368 11.672728 
dram[5]: 13.200000 11.747899 14.150537 13.294118 13.489362 13.617022 14.238636 13.531915 15.152941 12.588235 11.103448 12.553398 14.011236 10.533334 13.260870 11.962617 
dram[6]: 15.195402 13.368932 12.293578 11.190083 12.046729 14.021505 13.652174 12.880000 12.466020 14.260870 12.504854 12.627451 12.783505 11.822430 10.840708 12.000000 
dram[7]: 13.080000 12.876190 12.854369 11.543859 12.800000 11.304348 14.795180 12.627451 14.776470 13.744680 15.317073 12.190476 14.000000 10.453781 12.039604 12.536082 
dram[8]: 13.108911 13.549020 12.893204 11.344828 13.659575 10.380953 14.447059 10.575000 11.629630 11.648648 15.358025 11.122807 13.125000 11.887851 16.959999 11.527778 
dram[9]: 14.844444 12.757010 12.252253 10.656000 11.275862 11.206897 11.149123 10.914530 11.433628 12.500000 12.574258 11.963303 14.482759 11.952381 13.677420 11.123894 
dram[10]: 12.415094 15.694118 12.580953 12.834951 11.933333 13.291667 10.913794 10.871795 10.593221 11.423424 10.243902 11.500000 11.775701 10.487395 16.116882 12.009708 
dram[11]: 13.833333 13.936842 10.816000 14.695652 10.932773 12.538462 11.304348 11.535714 12.304762 12.471154 11.571428 10.569106 11.165217 10.290322 15.850000 15.095238 
dram[12]: 12.222222 13.098040 10.976000 12.214286 12.979798 12.339450 13.225806 12.673267 11.885715 12.705882 12.190476 11.185841 11.600000 11.600000 12.747475 14.574713 
dram[13]: 11.692983 14.365591 11.858407 12.839622 13.541667 11.821428 10.644068 12.500000 11.230088 11.642858 10.850000 12.074766 12.979591 11.428572 11.256638 14.620689 
dram[14]: 12.600000 10.809917 11.389831 10.592000 12.598040 11.068966 12.571428 11.442478 11.274336 12.075472 13.112245 10.086615 12.818182  9.500000 13.750000 11.883495 
dram[15]: 13.454545 11.578947 11.231405 12.560748 12.621359 11.050847 11.428572 12.000000 12.074766 11.853211 11.025210 12.352942 13.010101 10.349593 13.591398 14.833333 
dram[16]: 11.041323 12.411215 12.214286 13.795918 10.957983 13.120000 10.306452 12.457143 11.651786 12.737864 11.853211 12.036697 10.108527 11.371681 12.989691 15.142858 
dram[17]: 14.255320 14.888889 12.044642 14.382978 12.000000 12.823529 10.000000 13.141414 12.666667 12.769231 10.524590 11.179487 13.720430 12.792079 15.414634 15.238095 
dram[18]: 12.373832 16.390244 14.608696 15.823529 13.500000 12.660194 12.989691 12.960000 11.398231 12.185185 10.766666 11.616072 12.388350 12.969697 13.943182 18.470589 
dram[19]: 15.302325 20.121212 14.725275 13.165049 13.473684 12.392157 13.685393 15.625000 10.948718 13.061225 11.315315 12.565657 13.191489 14.619047 14.090909 14.987804 
dram[20]: 14.489130 15.395349 14.451612 14.212766 15.294118 13.183674 12.475247 11.816514 12.893204 15.174418 13.469388 12.970000 12.085714 12.233009 14.181818 12.194175 
dram[21]: 12.333333 12.072727 12.914286 13.400000 13.371134 12.831683 12.554456 15.047059 15.080460 12.111111 10.634147 10.798319 11.269566 12.245098 13.250000 13.777778 
dram[22]: 12.723809 11.927928 13.058824 12.523364 11.607142 15.341176 15.850000 14.266666 13.090909 13.736842 13.373737 10.368000 11.853211 12.696970 11.321428 13.263158 
dram[23]: 13.120000 13.000000 10.677420 13.240000 11.179487 13.090909 11.387387 18.000000 13.305264 13.849463 12.000000 12.989796 13.347368 12.775510 11.449541 13.777778 
dram[24]: 11.803572 13.591837 11.728070 11.798245 11.153846 13.829787 11.495413 12.940000 12.989691 13.333333 13.072165 12.800000 12.690000 13.677420 12.626263 14.266666 
dram[25]: 14.193548 13.894737 12.481482 11.858407 11.344828 12.188680 12.989691 13.402061 10.710744 11.500000 11.192983 13.061225 11.486238 13.020618 12.287128 13.404255 
dram[26]: 14.414893 13.479591 12.555555 13.076923 10.957983 11.324561  9.709924 13.702127 11.347826 11.727273 11.333333 12.087379 11.850468 11.635514 15.373494 14.227273 
dram[27]: 14.921349 14.042553 11.789474 12.256881 10.061539 11.779817 10.387096 10.198413 12.194445 11.192983 10.375000 11.234782  9.862596 10.112000 13.125000 13.521739 
dram[28]: 12.146789 13.414142 10.189394 13.165049  9.731343 12.380953 12.480000 12.133333 11.076923 11.633027 11.567568 10.479339 10.847458 11.236363 13.717391 12.600000 
dram[29]: 11.491380 13.936842  9.970589 13.544555 11.145299 13.160000 11.321428 13.000000 12.074766 13.050505 12.860000 13.946237  9.877863 11.709091 11.437500 12.989691 
dram[30]: 11.239316 13.333333 10.015038 11.173553 10.030769 12.317307 11.228070 12.543690 10.387096 12.435643 11.315315 11.851851 10.400000 10.956522 11.272727 13.234042 
[...]
Row_Bus_Util =  0.126453 
CoL_Bus_Util = 0.731213 
Either_Row_CoL_Bus_Util = 0.748468 
Issued_on_Two_Bus_Simul_Util = 0.109198 
issued_two_Eff = 0.145895 
queue_avg = 29.732235 


dram_util_bins: 0 0 0 0 0 0 0 0 0 0
dram_eff_bins: 0 0 0 0 0 0 0 0 0 0
mrqq: max=64 avg=29.7322
Memory Partition 28: 
Cache L2_bank_056:

Cache L2_bank_057:

In Dram Latency Queue (total = 51): 
DRAM[28]: 16 bks, busW=16 BL=2 CL=12, tRRD=3 tCCD=1, tRCD=12 tRAS=28 tRP=12 tRC=40
n_cmd=28398 n_nop=7289 n_act=1765 n_pre=1749 n_ref_event=0 n_req=20645 n_rd=20630 n_rd_L2_A=0 n_write=0 n_wr_bk=0 bw_util=0.7265
n_activity=23731 dram_eff=0.8693
bk0: 1324a 21837i bk1: 1328a 21635i bk2: 1344a 21423i bk3: 1356a 21592i bk4: 1304a 21525i bk5: 1300a 21898i bk6: 1248a 22360i bk7: 1273a 21505i bk8: 1296a 21310i bk9: 1268a 21095i bk10: 1284a 21833i bk11: 1268a 20894i bk12: 1280a 21528i bk13: 1236a 21588i bk14: 1261a 22549i bk15: 1260a 21763i 

------------------------------------------------------------------------

Row_Buffer_Locality = 0.914457
Row_Buffer_Locality_read = 0.914457
Row_Buffer_Locality_write = -nan
Bank_Level_Parallism = 5.490675
Bank_Level_Parallism_Col = 4.275355
Bank_Level_Parallism_Ready = 2.685167
write_to_read_ratio_blp_rw_average = 0.000000
GrpLevelPara = 2.878711 

BW Util details:
bwutil = 0.726460 
total_CMD = 28398 
util_bw = 20630 
Wasted_Col = 2416 
Wasted_Row = 387 
Idle = 4965 

BW Util Bottlenecks: 
RCDc_limit = 2945 
RCDWRc_limit = 0 
WTRc_limit = 0 
RTWc_limit = 0 
CCDLc_limit = 2158 
rwq = 0 
CCDLc_limit_alone = 2158 
WTRc_limit_alone = 0 
RTWc_limit_alone = 0 

Commands details: 
total_CMD = 28398 
n_nop = 7289 
Read = 20630 
Write = 0 
L2_Alloc = 0 
L2_WB = 0 
n_act = 1765 
n_pre = 1749 
n_ref = 0 
n_req = 20645 
total_req = 20630 

Dual Bus Interface Util: 
issued_total_row = 3514 
issued_total_col = 20630 
Row_Bus_Util =  0.123741 
CoL_Bus_Util = 0.726460 
Either_Row_CoL_Bus_Util = 0.743327 
Issued_on_Two_Bus_Simul_Util = 0.106874 
issued_two_Eff = 0.143778 
queue_avg = 31.215931 


dram_util_bins: 0 0 0 0 0 0 0 0 0 0
dram_eff_bins: 0 0 0 0 0 0 0 0 0 0
mrqq: max=64 avg=31.2159
Memory Partition 29: 
Cache L2_bank_058:

Cache L2_bank_059:

In Dram Latency Queue (total = 76): 
DRAM[29]: 16 bks, busW=16 BL=2 CL=12, tRRD=3 tCCD=1, tRCD=12 tRAS=28 tRP=12 tRC=40
n_cmd=28398 n_nop=7115 n_act=1723 n_pre=1709 n_ref_event=0 n_req=20873 n_rd=20855 n_rd_L2_A=0 n_write=0 n_wr_bk=0 bw_util=0.7344
n_activity=23659 dram_eff=0.8815
bk0: 1332a 20707i bk1: 1324a 21283i bk2: 1356a 20685i bk3: 1368a 21340i bk4: 1304a 21548i bk5: 1316a 21202i bk6: 1268a 21443i bk7: 1300a 21425i bk8: 1292a 21461i bk9: 1292a 21273i bk10: 1285a 21657i bk11: 1296a 21494i bk12: 1294a 20557i bk13: 1288a 21136i bk14: 1280a 21200i bk15: 1260a 21550i 

------------------------------------------------------------------------

Row_Buffer_Locality = 0.917254
Row_Buffer_Locality_read = 0.917254
Row_Buffer_Locality_write = -nan
Bank_Level_Parallism = 5.808726
Bank_Level_Parallism_Col = 4.633644
Bank_Level_Parallism_Ready = 2.960777
write_to_read_ratio_blp_rw_average = 0.000000
GrpLevelPara = 2.994219 

BW Util details:
bwutil = 0.734383 
total_CMD = 28398 
util_bw = 20855 
Wasted_Col = 2022 
Wasted_Row = 409 
Idle = 5112 

BW Util Bottlenecks: 
RCDc_limit = 2337 
RCDWRc_limit = 0 
WTRc_limit = 0 
RTWc_limit = 0 
CCDLc_limit = 1765 
rwq = 0 
CCDLc_limit_alone = 1765 
WTRc_limit_alone = 0 
RTWc_limit_alone = 0 

Commands details: 
total_CMD = 28398 
n_nop = 7115 
Read = 20855 
Write = 0 
L2_Alloc = 0 
L2_WB = 0 
n_act = 1723 
n_pre = 1709 
n_ref = 0 
n_req = 20873 
total_req = 20855 

Dual Bus Interface Util: 
issued_total_row = 3432 
issued_total_col = 20855 
Row_Bus_Util =  0.120854 
CoL_Bus_Util = 0.734383 
Either_Row_CoL_Bus_Util = 0.749454 
Issued_on_Two_Bus_Simul_Util = 0.105782 
issued_two_Eff = 0.141146 
queue_avg = 33.394745 


dram_util_bins: 0 0 0 0 0 0 0 0 0 0
dram_eff_bins: 0 0 0 0 0 0 0 0 0 0
mrqq: max=64 avg=33.3947
Memory Partition 30: 
Cache L2_bank_060:

Cache L2_bank_061:

In Dram Latency Queue (total = 105): 
DRAM[30]: 16 bks, busW=16 BL=2 CL=12, tRRD=3 tCCD=1, tRCD=12 tRAS=28 tRP=12 tRC=40
n_cmd=28398 n_nop=7302 n_act=1803 n_pre=1788 n_ref_event=0 n_req=20551 n_rd=20544 n_rd_L2_A=0 n_write=0 n_wr_bk=12 bw_util=0.7239
n_activity=23439 dram_eff=0.877
bk0: 1312a 21156i bk1: 1320a 21467i bk2: 1332a 21160i bk3: 1352a 20770i bk4: 1304a 21091i bk5: 1280a 21516i bk6: 1280a 21382i bk7: 1292a 21417i bk8: 1288a 21287i bk9: 1256a 21248i bk10: 1256a 21678i bk11: 1280a 21468i bk12: 1248a 21295i bk13: 1260a 21328i bk14: 1240a 21706i bk15: 1244a 21968i 

------------------------------------------------------------------------

Row_Buffer_Locality = 0.912206
Row_Buffer_Locality_read = 0.912290
Row_Buffer_Locality_write = 0.333333
Bank_Level_Parallism = 5.720468
Bank_Level_Parallism_Col = 4.495242
Bank_Level_Parallism_Ready = 2.840679
write_to_read_ratio_blp_rw_average = 0.004509
GrpLevelPara = 2.995001 

BW Util details:
bwutil = 0.723854 
total_CMD = 28398 
util_bw = 20556 
Wasted_Col = 2305 
Wasted_Row = 385 
Idle = 5152 

BW Util Bottlenecks: 
RCDc_limit = 3100 
RCDWRc_limit = 5 
WTRc_limit = 47 
RTWc_limit = 64 
CCDLc_limit = 1932 
rwq = 0 
CCDLc_limit_alone = 1928 
WTRc_limit_alone = 43 
RTWc_limit_alone = 64 

Commands details: 
total_CMD = 28398 
n_nop = 7302 
Read = 20544 
Write = 0 
L2_Alloc = 0 
L2_WB = 12 
n_act = 1803 
n_pre = 1788 
n_ref = 0 
n_req = 20551 
total_req = 20556 

Dual Bus Interface Util: 
issued_total_row = 3591 
issued_total_col = 20556 
Row_Bus_Util =  0.126453 
CoL_Bus_Util = 0.723854 
Either_Row_CoL_Bus_Util = 0.742869 
Issued_on_Two_Bus_Simul_Util = 0.107437 
issued_two_Eff = 0.144625 
queue_avg = 33.496479 


dram_util_bins: 0 0 0 0 0 0 0 0 0 0
dram_eff_bins: 0 0 0 0 0 0 0 0 0 0
mrqq: max=64 avg=33.4965
Memory Partition 31: 
Cache L2_bank_062:

Cache L2_bank_063:

In Dram Latency Queue (total = 129): 
DRAM[31]: 16 bks, busW=16 BL=2 CL=12, tRRD=3 tCCD=1, tRCD=12 tRAS=28 tRP=12 tRC=40
n_cmd=28398 n_nop=7082 n_act=1776 n_pre=1761 n_ref_event=0 n_req=20868 n_rd=20835 n_rd_L2_A=0 n_write=0 n_wr_bk=15 bw_util=0.7342
n_activity=23373 dram_eff=0.8921
bk0: 1328a 20607i bk1: 1340a 21246i bk2: 1365a 21125i bk3: 1352a 20751i bk4: 1328a 20868i bk5: 1312a 21440i bk6: 1296a 21290i bk7: 1296a 20502i bk8: 1310a 21033i bk9: 1252a 21382i bk10: 1308a 21199i bk11: 1264a 21157i bk12: 1280a 21058i bk13: 1263a 20840i bk14: 1273a 21479i bk15: 1268a 21328i 

------------------------------------------------------------------------

Row_Buffer_Locality = 0.914744
Row_Buffer_Locality_read = 0.914823
Row_Buffer_Locality_write = 0.500000
Bank_Level_Parallism = 5.939955
Bank_Level_Parallism_Col = 4.687702
Bank_Level_Parallism_Ready = 2.966043
write_to_read_ratio_blp_rw_average = 0.010954
GrpLevelPara = 3.072735 

BW Util details:
bwutil = 0.734207 
total_CMD = 28398 
util_bw = 20850 
Wasted_Col = 2043 
Wasted_Row = 323 
Idle = 5182 

BW Util Bottlenecks: 
RCDc_limit = 2588 
RCDWRc_limit = 4 
WTRc_limit = 43 
RTWc_limit = 149 
CCDLc_limit = 1684 
rwq = 0 
CCDLc_limit_alone = 1671 
WTRc_limit_alone = 40 
RTWc_limit_alone = 139 

Commands details: 
total_CMD = 28398 
n_nop = 7082 
Read = 20835 
Write = 0 
L2_Alloc = 0 
L2_WB = 15 
n_act = 1776 
n_pre = 1761 
n_ref = 0 
n_req = 20868 
total_req = 20850 

Dual Bus Interface Util: 
issued_total_row = 3537 
issued_total_col = 20850 
Row_Bus_Util =  0.124551 
CoL_Bus_Util = 0.734207 
Either_Row_CoL_Bus_Util = 0.750616 
Issued_on_Two_Bus_Simul_Util = 0.108141 
issued_two_Eff = 0.144070 
queue_avg = 36.570004 


dram_util_bins: 0 0 0 0 0 0 0 0 0 0
dram_eff_bins: 0 0 0 0 0 0 0 0 0 0
mrqq: max=64 avg=36.57

========= L2 cache stats =========
L2_cache_bank[0]: Access = 13316, Miss = 10596, Miss_rate = 0.796, Pending_hits = 13, Reservation_fails = 474
L2_cache_bank[1]: Access = 13781, Miss = 10861, Miss_rate = 0.788, Pending_hits = 21, Reservation_fails = 3053
L2_cache_bank[2]: Access = 13290, Miss = 10595, Miss_rate = 0.797, Pending_hits = 20, Reservation_fails = 195
L2_cache_bank[3]: Access = 13715, Miss = 10868, Miss_rate = 0.792, Pending_hits = 28, Reservation_fails = 8276
L2_cache_bank[4]: Access = 13104, Miss = 10546, Miss_rate = 0.805, Pending_hits = 16, Reservation_fails = 4447
L2_cache_bank[5]: Access = 13549, Miss = 10685, Miss_rate = 0.789, Pending_hits = 12, Reservation_fails = 5337
L2_cache_bank[6]: Access = 13191, Miss = 10463, Miss_rate = 0.793, Pending_hits = 20, Reservation_fails = 8298
L2_cache_bank[7]: Access = 13411, Miss = 10488, Miss_rate = 0.782, Pending_hits = 28, Reservation_fails = 5045
L2_cache_bank[8]: Access = 13257, Miss = 10616, Miss_rate = 0.801, Pending_hits = 13, Reservation_fails = 6875
L2_cache_bank[9]: Access = 13645, Miss = 10756, Miss_rate = 0.788, Pending_hits = 36, Reservation_fails = 5945
L2_cache_bank[10]: Access = 13116, Miss = 10502, Miss_rate = 0.801, Pending_hits = 25, Reservation_fails = 4447
L2_cache_bank[11]: Access = 13916, Miss = 10846, Miss_rate = 0.779, Pending_hits = 30, Reservation_fails = 7072
L2_cache_bank[12]: Access = 13061, Miss = 10577, Miss_rate = 0.810, Pending_hits = 9, Reservation_fails = 3890
L2_cache_bank[13]: Access = 13840, Miss = 10853, Miss_rate = 0.784, Pending_hits = 14, Reservation_fails = 7932
L2_cache_bank[14]: Access = 12920, Miss = 10381, Miss_rate = 0.803, Pending_hits = 11, Reservation_fails = 1499
L2_cache_bank[15]: Access = 13554, Miss = 10604, Miss_rate = 0.782, Pending_hits = 26, Reservation_fails = 6041
L2_cache_bank[16]: Access = 13011, Miss = 10523, Miss_rate = 0.809, Pending_hits = 17, Reservation_fails = 3348
L2_cache_bank[17]: Access = 13576, Miss = 10709, Miss_rate = 0.789, Pending_hits = 13, Reservation_fails = 6400
L2_cache_bank[18]: Access = 13088, Miss = 10634, Miss_rate = 0.812, Pending_hits = 18, Reservation_fails = 4315
L2_cache_bank[19]: Access = 13616, Miss = 10727, Miss_rate = 0.788, Pending_hits = 13, Reservation_fails = 5924
L2_cache_bank[20]: Access = 12557, Miss = 10503, Miss_rate = 0.836, Pending_hits = 13, Reservation_fails = 703
L2_cache_bank[21]: Access = 13317, Miss = 10583, Miss_rate = 0.795, Pending_hits = 25, Reservation_fails = 5314
L2_cache_bank[22]: Access = 13054, Miss = 10633, Miss_rate = 0.815, Pending_hits = 19, Reservation_fails = 617
L2_cache_bank[23]: Access = 13364, Miss = 10588, Miss_rate = 0.792, Pending_hits = 14, Reservation_fails = 0
L2_cache_bank[24]: Access = 13576, Miss = 10474, Miss_rate = 0.772, Pending_hits = 6, Reservation_fails = 1041
L2_cache_bank[25]: Access = 13351, Miss = 10617, Miss_rate = 0.795, Pending_hits = 21, Reservation_fails = 351
L2_cache_bank[26]: Access = 13533, Miss = 10557, Miss_rate = 0.780, Pending_hits = 10, Reservation_fails = 501
L2_cache_bank[27]: Access = 13426, Miss = 10648, Miss_rate = 0.793, Pending_hits = 10, Reservation_fails = 569
L2_cache_bank[28]: Access = 13486, Miss = 10545, Miss_rate = 0.782, Pending_hits = 9, Reservation_fails = 810
L2_cache_bank[29]: Access = 13415, Miss = 10468, Miss_rate = 0.780, Pending_hits = 7, Reservation_fails = 44
L2_cache_bank[30]: Access = 13675, Miss = 10620, Miss_rate = 0.777, Pending_hits = 15, Reservation_fails = 187
L2_cache_bank[31]: Access = 13438, Miss = 10512, Miss_rate = 0.782, Pending_hits = 19, Reservation_fails = 782
L2_cache_bank[32]: Access = 13702, Miss = 10668, Miss_rate = 0.779, Pending_hits = 26, Reservation_fails = 652
L2_cache_bank[33]: Access = 13651, Miss = 10690, Miss_rate = 0.783, Pending_hits = 10, Reservation_fails = 70
L2_cache_bank[34]: Access = 13649, Miss = 10583, Miss_rate = 0.775, Pending_hits = 16, Reservation_fails = 282
L2_cache_bank[35]: Access = 13672, Miss = 10748, Miss_rate = 0.786, Pending_hits = 19, Reservation_fails = 63
L2_cache_bank[36]: Access = 13414, Miss = 10508, Miss_rate = 0.783, Pending_hits = 12, Reservation_fails = 349
L2_cache_bank[37]: Access = 13607, Miss = 10651, Miss_rate = 0.783, Pending_hits = 20, Reservation_fails = 24
L2_cache_bank[38]: Access = 13526, Miss = 10466, Miss_rate = 0.774, Pending_hits = 16, Reservation_fails = 354
L2_cache_bank[39]: Access = 13407, Miss = 10396, Miss_rate = 0.775, Pending_hits = 12, Reservation_fails = 873
L2_cache_bank[40]: Access = 13685, Miss = 10618, Miss_rate = 0.776, Pending_hits = 24, Reservation_fails = 1345
L2_cache_bank[41]: Access = 13351, Miss = 10581, Miss_rate = 0.793, Pending_hits = 22, Reservation_fails = 954
L2_cache_bank[42]: Access = 13693, Miss = 10616, Miss_rate = 0.775, Pending_hits = 22, Reservation_fails = 328
L2_cache_bank[43]: Access = 13340, Miss = 10545, Miss_rate = 0.790, Pending_hits = 12, Reservation_fails = 725
L2_cache_bank[44]: Access = 13700, Miss = 10654, Miss_rate = 0.778, Pending_hits = 9, Reservation_fails = 298
L2_cache_bank[45]: Access = 13469, Miss = 10636, Miss_rate = 0.790, Pending_hits = 11, Reservation_fails = 328
L2_cache_bank[46]: Access = 13319, Miss = 10433, Miss_rate = 0.783, Pending_hits = 14, Reservation_fails = 2210
L2_cache_bank[47]: Access = 13262, Miss = 10427, Miss_rate = 0.786, Pending_hits = 14, Reservation_fails = 0
L2_cache_bank[48]: Access = 13413, Miss = 10480, Miss_rate = 0.781, Pending_hits = 12, Reservation_fails = 1388
L2_cache_bank[49]: Access = 13441, Miss = 10595, Miss_rate = 0.788, Pending_hits = 14, Reservation_fails = 0
L2_cache_bank[50]: Access = 13552, Miss = 10488, Miss_rate = 0.774, Pending_hits = 19, Reservation_fails = 571
L2_cache_bank[51]: Access = 13285, Miss = 10528, Miss_rate = 0.792, Pending_hits = 19, Reservation_fails = 343
L2_cache_bank[52]: Access = 13584, Miss = 10640, Miss_rate = 0.783, Pending_hits = 21, Reservation_fails = 262
L2_cache_bank[53]: Access = 13252, Miss = 10501, Miss_rate = 0.792, Pending_hits = 18, Reservation_fails = 249
L2_cache_bank[54]: Access = 13573, Miss = 10653, Miss_rate = 0.785, Pending_hits = 16, Reservation_fails = 0
L2_cache_bank[55]: Access = 13303, Miss = 10472, Miss_rate = 0.787, Pending_hits = 12, Reservation_fails = 107
L2_cache_bank[56]: Access = 13500, Miss = 10532, Miss_rate = 0.780, Pending_hits = 10, Reservation_fails = 798
L2_cache_bank[57]: Access = 13343, Miss = 10465, Miss_rate = 0.784, Pending_hits = 5, Reservation_fails = 417
L2_cache_bank[58]: Access = 13585, Miss = 10605, Miss_rate = 0.781, Pending_hits = 7, Reservation_fails = 116
L2_cache_bank[59]: Access = 13497, Miss = 10641, Miss_rate = 0.788, Pending_hits = 13, Reservation_fails = 311
L2_cache_bank[60]: Access = 13513, Miss = 10527, Miss_rate = 0.779, Pending_hits = 20, Reservation_fails = 862
L2_cache_bank[61]: Access = 13230, Miss = 10499, Miss_rate = 0.794, Pending_hits = 14, Reservation_fails = 2314
L2_cache_bank[62]: Access = 13828, Miss = 10872, Miss_rate = 0.786, Pending_hits = 13, Reservation_fails = 1577
L2_cache_bank[63]: Access = 13414, Miss = 10538, Miss_rate = 0.786, Pending_hits = 19, Reservation_fails = 3652
L2_total_cache_accesses = 859909
L2_total_cache_misses = 677834
L2_total_cache_miss_rate = 0.7883
L2_total_cache_pending_hits = 1042
L2_total_cache_reservation_fails = 131554
L2_total_cache_breakdown:
	L2_cache_stats_breakdown[GLOBAL_ACC_R][HIT] = 172565
	L2_cache_stats_breakdown[GLOBAL_ACC_R][HIT_RESERVED] = 1042
	L2_cache_stats_breakdown[GLOBAL_ACC_R][MISS] = 166715
	L2_cache_stats_breakdown[GLOBAL_ACC_R][RESERVATION_FAIL] = 131554
	L2_cache_stats_breakdown[GLOBAL_ACC_R][SECTOR_MISS] = 500006
	L2_cache_stats_breakdown[LOCAL_ACC_R][HIT] = 0
	L2_cache_stats_breakdown[LOCAL_ACC_R][HIT_RESERVED] = 0
	L2_cache_stats_breakdown[LOCAL_ACC_R][MISS] = 0
	L2_cache_stats_breakdown[LOCAL_ACC_R][RESERVATION_FAIL] = 0
	L2_cache_stats_breakdown[LOCAL_ACC_R][SECTOR_MISS] = 0
	L2_cache_stats_breakdown[CONST_ACC_R][HIT] = 0
	L2_cache_stats_breakdown[CONST_ACC_R][HIT_RESERVED] = 0
	L2_cache_stats_breakdown[CONST_ACC_R][MISS] = 0
	L2_cache_stats_breakdown[CONST_ACC_R][RESERVATION_FAIL] = 0
	L2_cache_stats_breakdown[CONST_ACC_R][SECTOR_MISS] = 0
	L2_cache_stats_breakdown[TEXTURE_ACC_R][HIT] = 0
	L2_cache_stats_breakdown[TEXTURE_ACC_R][HIT_RESERVED] = 0
	L2_cache_stats_breakdown[TEXTURE_ACC_R][MISS] = 0
	L2_cache_stats_breakdown[TEXTURE_ACC_R][RESERVATION_FAIL] = 0
	L2_cache_stats_breakdown[TEXTURE_ACC_R][SECTOR_MISS] = 0
	L2_cache_stats_breakdown[GLOBAL_ACC_W][HIT] = 8468
	L2_cache_stats_breakdown[GLOBAL_ACC_W][HIT_RESERVED] = 0
	L2_cache_stats_breakdown[GLOBAL_ACC_W][MISS] = 2281
	L2_cache_stats_breakdown[GLOBAL_ACC_W][RESERVATION_FAIL] = 0
	L2_cache_stats_breakdown[GLOBAL_ACC_W][SECTOR_MISS] = 8832
	L2_cache_stats_breakdown[LOCAL_ACC_W][HIT] = 0
	L2_cache_stats_breakdown[LOCAL_ACC_W][HIT_RESERVED] = 0
	L2_cache_stats_breakdown[LOCAL_ACC_W][MISS] = 0
	L2_cache_stats_breakdown[LOCAL_ACC_W][RESERVATION_FAIL] = 0
	L2_cache_stats_breakdown[LOCAL_ACC_W][SECTOR_MISS] = 0
	L2_cache_stats_breakdown[L1_WRBK_ACC][HIT] = 0
	L2_cache_stats_breakdown[L1_WRBK_ACC][HIT_RESERVED] = 0
	L2_cache_stats_breakdown[L1_WRBK_ACC][MISS] = 0
	L2_cache_stats_breakdown[L1_WRBK_ACC][RESERVATION_FAIL] = 0
	L2_cache_stats_breakdown[L1_WRBK_ACC][SECTOR_MISS] = 0
	L2_cache_stats_breakdown[L2_WRBK_ACC][HIT] = 0
	L2_cache_stats_breakdown[L2_WRBK_ACC][HIT_RESERVED] = 0
	L2_cache_stats_breakdown[L2_WRBK_ACC][MISS] = 0
	L2_cache_stats_breakdown[L2_WRBK_ACC][RESERVATION_FAIL] = 0
	L2_cache_stats_breakdown[L2_WRBK_ACC][SECTOR_MISS] = 0
	L2_cache_stats_breakdown[INST_ACC_R][HIT] = 0
	L2_cache_stats_breakdown[INST_ACC_R][HIT_RESERVED] = 0
	L2_cache_stats_breakdown[INST_ACC_R][MISS] = 0
	L2_cache_stats_breakdown[INST_ACC_R][RESERVATION_FAIL] = 0
	L2_cache_stats_breakdown[INST_ACC_R][SECTOR_MISS] = 0
	L2_cache_stats_breakdown[L1_WR_ALLOC_R][HIT] = 0
	L2_cache_stats_breakdown[L1_WR_ALLOC_R][HIT_RESERVED] = 0
	L2_cache_stats_breakdown[L1_WR_ALLOC_R][MISS] = 0
	L2_cache_stats_breakdown[L1_WR_ALLOC_R][RESERVATION_FAIL] = 0
	L2_cache_stats_breakdown[L1_WR_ALLOC_R][SECTOR_MISS] = 0
	L2_cache_stats_breakdown[L2_WR_ALLOC_R][HIT] = 0
	L2_cache_stats_breakdown[L2_WR_ALLOC_R][HIT_RESERVED] = 0
	L2_cache_stats_breakdown[L2_WR_ALLOC_R][MISS] = 0
	L2_cache_stats_breakdown[L2_WR_ALLOC_R][RESERVATION_FAIL] = 0
	L2_cache_stats_breakdown[L2_WR_ALLOC_R][SECTOR_MISS] = 0
	L2_cache_stats_breakdown[GLOBAL_ACC_R][TOTAL_ACCESS] = 840328
	L2_cache_stats_breakdown[GLOBAL_ACC_W][TOTAL_ACCESS] = 19581
L2_total_cache_reservation_fail_breakdown:
	L2_cache_stats_fail_breakdown[GLOBAL_ACC_R][MSHR_ENRTY_FAIL] = 131554
L2_cache_data_port_util = 0.075
L2_cache_fill_port_util = 0.273

icnt_total_pkts_mem_to_simt=854399
icnt_total_pkts_simt_to_mem=869017
LD_mem_lat_dist  0 0 0 0 0 0 0 0 0 0 0 0 0 0 0 0 0 0 0 0 0 0 0 0 0 0 0
ST_mem_lat_dist  0 0 0 0 0 0 0 0 0 0 0 0 0 0 0 0 0 0 0 0 0 0 0 0 0 0 0
----------------------------Interconnect-DETAILS--------------------------------
Req_Network_injected_packets_num = 869017
Req_Network_cycles = 37820
Req_Network_injected_packets_per_cycle =      22.9777 
Req_Network_conflicts_per_cycle =      20.6049
Req_Network_conflicts_per_cycle_util =      24.0897
Req_Bank_Level_Parallism =      26.7801
Req_Network_in_buffer_full_per_cycle =       0.0000
Req_Network_in_buffer_avg_util =      27.0767
Req_Network_out_buffer_full_per_cycle =       0.2017
Req_Network_out_buffer_avg_util =      28.9048

Reply_Network_injected_packets_num = 854632
Reply_Network_cycles = 37820
Reply_Network_injected_packets_per_cycle =       22.5974
Reply_Network_conflicts_per_cycle =        8.2042
Reply_Network_conflicts_per_cycle_util =       9.6457
Reply_Bank_Level_Parallism =      26.5616
Reply_Network_in_buffer_full_per_cycle =       0.0000
Reply_Network_in_buffer_avg_util =       0.6128
Reply_Network_out_buffer_full_per_cycle =       0.0000
Reply_Network_out_buffer_avg_util =       0.2824
----------------------------END-of-Interconnect-DETAILS-------------------------


gpgpu_simulation_time = 0 days, 0 hrs, 6 min, 44 sec (404 sec)
gpgpu_simulation_rate = 101358 (inst/sec)
gpgpu_simulation_rate = 93 (cycle/sec)
gpgpu_silicon_slowdown = 12172043x
GPGPU-Sim: *** simulation thread exiting ***
GPGPU-Sim: ** break due to reaching the maximum cycles (or instructions) **
GPGPU-Sim: *** exit detected ***
