

        *** GPGPU-Sim Simulator Version 4.0.0  [build gpgpu-sim_git-commit-ffe0a1a00e984ecce9bf36e17ab94c4de0de8108_modified_0.0] ***


GPGPU-Sim PTX: simulation mode 0 (can change with PTX_SIM_MODE_FUNC environment variable:
               1=functional simulation only, 0=detailed performance simulator)
GPGPU-Sim PTX: overriding embedded ptx with ptx file (PTX_SIM_USE_PTX_FILE is set)
GPGPU-Sim: Configuration options:

-save_embedded_ptx                      0 # saves ptx files embedded in binary as <n>.ptx
-keep                                   0 # keep intermediate files created by GPGPU-Sim when interfacing with external programs
-gpgpu_ptx_save_converted_ptxplus                    0 # Saved converted ptxplus to a file
-gpgpu_occupancy_sm_number                   70 # The SM number to pass to ptxas when getting register usage for computing GPU occupancy. This parameter is required in the config.
-ptx_opcode_latency_int      4,13,4,5,145,21 # Opcode latencies for integers <ADD,MAX,MUL,MAD,DIV,SHFL>Default 1,1,19,25,145,32
-ptx_opcode_latency_fp          4,13,4,5,39 # Opcode latencies for single precision floating points <ADD,MAX,MUL,MAD,DIV>Default 1,1,1,1,30
-ptx_opcode_latency_dp         8,19,8,8,330 # Opcode latencies for double precision floating points <ADD,MAX,MUL,MAD,DIV>Default 8,8,8,8,335
-ptx_opcode_latency_sfu                  100 # Opcode latencies for SFU instructionsDefault 8
-ptx_opcode_latency_tesnor                   64 # Opcode latencies for Tensor instructionsDefault 64
-ptx_opcode_initiation_int          2,2,2,2,8,4 # Opcode initiation intervals for integers <ADD,MAX,MUL,MAD,DIV,SHFL>Default 1,1,4,4,32,4
-ptx_opcode_initiation_fp            2,2,2,2,4 # Opcode initiation intervals for single precision floating points <ADD,MAX,MUL,MAD,DIV>Default 1,1,1,1,5
-ptx_opcode_initiation_dp          4,4,4,4,130 # Opcode initiation intervals for double precision floating points <ADD,MAX,MUL,MAD,DIV>Default 8,8,8,8,130
-ptx_opcode_initiation_sfu                    8 # Opcode initiation intervals for sfu instructionsDefault 8
-ptx_opcode_initiation_tensor                   64 # Opcode initiation intervals for tensor instructionsDefault 64
-cdp_latency         7200,8000,100,12000,1600 # CDP API latency <cudaStreamCreateWithFlags, cudaGetParameterBufferV2_init_perWarp, cudaGetParameterBufferV2_perKernel, cudaLaunchDeviceV2_init_perWarp, cudaLaunchDevicV2_perKernel>Default 7200,8000,100,12000,1600
-network_mode                           2 # Interconnection network mode
-inter_config_file                   mesh # Interconnection network config file
-icnt_in_buffer_limit                  512 # in_buffer_limit
-icnt_out_buffer_limit                  512 # out_buffer_limit
-icnt_subnets                           2 # subnets
-icnt_arbiter_algo                      1 # arbiter_algo
-icnt_verbose                           0 # inct_verbose
-icnt_grant_cycles                      1 # grant_cycles
-gpgpu_ptx_use_cuobjdump                    1 # Use cuobjdump to extract ptx and sass from binaries
-gpgpu_experimental_lib_support                    0 # Try to extract code from cuda libraries [Broken because of unknown cudaGetExportTable]
-checkpoint_option                      0 #  checkpointing flag (0 = no checkpoint)
-checkpoint_kernel                      1 #  checkpointing during execution of which kernel (1- 1st kernel)
-checkpoint_CTA                         0 #  checkpointing after # of CTA (< less than total CTA)
-resume_option                          0 #  resume flag (0 = no resume)
-resume_kernel                          0 #  Resume from which kernel (1= 1st kernel)
-resume_CTA                             0 #  resume from which CTA 
-checkpoint_CTA_t                       0 #  resume from which CTA 
-checkpoint_insn_Y                      0 #  resume from which CTA 
-gpgpu_ptx_convert_to_ptxplus                    0 # Convert SASS (native ISA) to ptxplus and run ptxplus
-gpgpu_ptx_force_max_capability                   70 # Force maximum compute capability
-gpgpu_ptx_inst_debug_to_file                    0 # Dump executed instructions' debug information to file
-gpgpu_ptx_inst_debug_file       inst_debug.txt # Executed instructions' debug output file
-gpgpu_ptx_inst_debug_thread_uid                    1 # Thread UID for executed instructions' debug output
-gpgpu_n_mem_for_l2wb_pcommit                   32 # number of memory modules (e.g. memory controllers) in gpu
-gpgpu_n_sub_partition_per_mchannel_for_l2wb_pcommit                    2 # number of memory subpartition in each memory module
-gpgpu_dl2_bsize_for_l2wb_pcommit                  128 # default 128 bytes
-gpgpu_simd_model                       1 # 1 = post-dominator
-gpgpu_shader_core_pipeline              2048:32 # shader core pipeline config, i.e., {<nthread>:<warpsize>}
-gpgpu_tex_cache:l1  N:4:128:256,L:R:m:N:L,T:512:8,128:2 # per-shader L1 texture cache  (READ-ONLY) config  {<nsets>:<bsize>:<assoc>,<rep>:<wr>:<alloc>:<wr_alloc>,<mshr>:<N>:<merge>,<mq>:<rf>}
-gpgpu_const_cache:l1 N:128:64:8,L:R:f:N:L,S:2:64,4 # per-shader L1 constant memory cache  (READ-ONLY) config  {<nsets>:<bsize>:<assoc>,<rep>:<wr>:<alloc>:<wr_alloc>,<mshr>:<N>:<merge>,<mq>} 
-gpgpu_cache:il1     N:64:128:16,L:R:f:N:L,S:2:48,4 # shader L1 instruction cache config  {<nsets>:<bsize>:<assoc>,<rep>:<wr>:<alloc>:<wr_alloc>,<mshr>:<N>:<merge>,<mq>} 
-gpgpu_cache:dl1     S:1:128:256,L:L:s:N:L,A:256:8,16:0,32 # per-shader L1 data cache config  {<nsets>:<bsize>:<assoc>,<rep>:<wr>:<alloc>:<wr_alloc>,<mshr>:<N>:<merge>,<mq> | none}
-gpgpu_l1_banks                         4 # The number of L1 cache banks
-gpgpu_l1_banks_byte_interleaving                   32 # l1 banks byte interleaving granularity
-gpgpu_l1_banks_hashing_function                    0 # l1 banks hashing function
-gpgpu_l1_latency                      20 # L1 Hit Latency
-gpgpu_smem_latency                    20 # smem Latency
-gpgpu_cache:dl1PrefL1                 none # per-shader L1 data cache config  {<nsets>:<bsize>:<assoc>,<rep>:<wr>:<alloc>:<wr_alloc>,<mshr>:<N>:<merge>,<mq> | none}
-gpgpu_cache:dl1PrefShared                 none # per-shader L1 data cache config  {<nsets>:<bsize>:<assoc>,<rep>:<wr>:<alloc>:<wr_alloc>,<mshr>:<N>:<merge>,<mq> | none}
-gpgpu_gmem_skip_L1D                    0 # global memory access skip L1D cache (implements -Xptxas -dlcm=cg, default=no skip)
-gpgpu_perfect_mem                      0 # enable perfect memory mode (no cache miss)
-n_regfile_gating_group                    4 # group of lanes that should be read/written together)
-gpgpu_clock_gated_reg_file                    0 # enable clock gated reg file for power calculations
-gpgpu_clock_gated_lanes                    0 # enable clock gated lanes for power calculations
-gpgpu_shader_registers                65536 # Number of registers per shader core. Limits number of concurrent CTAs. (default 8192)
-gpgpu_registers_per_block                65536 # Maximum number of registers per CTA. (default 8192)
-gpgpu_ignore_resources_limitation                    0 # gpgpu_ignore_resources_limitation (default 0)
-gpgpu_shader_cta                      32 # Maximum number of concurrent CTAs in shader (default 8)
-gpgpu_num_cta_barriers                   16 # Maximum number of named barriers per CTA (default 16)
-gpgpu_n_clusters                      80 # number of processing clusters
-gpgpu_n_cores_per_cluster                    1 # number of simd cores per cluster
-gpgpu_n_cluster_ejection_buffer_size                   32 # number of packets in ejection buffer
-gpgpu_n_ldst_response_buffer_size                    2 # number of response packets in ld/st unit ejection buffer
-gpgpu_shmem_per_block                65536 # Size of shared memory per thread block or CTA (default 48kB)
-gpgpu_shmem_size                   98304 # Size of shared memory per shader core (default 16kB)
-gpgpu_adaptive_cache_config            536870913 # adaptive_cache_config
-gpgpu_shmem_sizeDefault                98304 # Size of shared memory per shader core (default 16kB)
-gpgpu_shmem_size_PrefL1                16384 # Size of shared memory per shader core (default 16kB)
-gpgpu_shmem_size_PrefShared                16384 # Size of shared memory per shader core (default 16kB)
-gpgpu_shmem_num_banks                   32 # Number of banks in the shared memory in each shader core (default 16)
-gpgpu_shmem_limited_broadcast                    0 # Limit shared memory to do one broadcast per cycle (default on)
-gpgpu_shmem_warp_parts                    1 # Number of portions a warp is divided into for shared memory bank conflict check 
-gpgpu_mem_unit_ports                    1 # The number of memory transactions allowed per core cycle
-gpgpu_shmem_warp_parts                    1 # Number of portions a warp is divided into for shared memory bank conflict check 
-gpgpu_warpdistro_shader                   -1 # Specify which shader core to collect the warp size distribution from
-gpgpu_warp_issue_shader                    0 # Specify which shader core to collect the warp issue distribution from
-gpgpu_local_mem_map                    1 # Mapping from local memory space address to simulated GPU physical address space (default = enabled)
-gpgpu_num_reg_banks                   16 # Number of register banks (default = 8)
-gpgpu_reg_bank_use_warp_id                    0 # Use warp ID in mapping registers to banks (default = off)
-gpgpu_sub_core_model                    1 # Sub Core Volta/Pascal model (default = off)
-gpgpu_enable_specialized_operand_collector                    0 # enable_specialized_operand_collector
-gpgpu_operand_collector_num_units_sp                    4 # number of collector units (default = 4)
-gpgpu_operand_collector_num_units_dp                    0 # number of collector units (default = 0)
-gpgpu_operand_collector_num_units_sfu                    4 # number of collector units (default = 4)
-gpgpu_operand_collector_num_units_int                    0 # number of collector units (default = 0)
-gpgpu_operand_collector_num_units_tensor_core                    4 # number of collector units (default = 4)
-gpgpu_operand_collector_num_units_mem                    2 # number of collector units (default = 2)
-gpgpu_operand_collector_num_units_gen                    8 # number of collector units (default = 0)
-gpgpu_operand_collector_num_in_ports_sp                    1 # number of collector unit in ports (default = 1)
-gpgpu_operand_collector_num_in_ports_dp                    0 # number of collector unit in ports (default = 0)
-gpgpu_operand_collector_num_in_ports_sfu                    1 # number of collector unit in ports (default = 1)
-gpgpu_operand_collector_num_in_ports_int                    0 # number of collector unit in ports (default = 0)
-gpgpu_operand_collector_num_in_ports_tensor_core                    1 # number of collector unit in ports (default = 1)
-gpgpu_operand_collector_num_in_ports_mem                    1 # number of collector unit in ports (default = 1)
-gpgpu_operand_collector_num_in_ports_gen                    8 # number of collector unit in ports (default = 0)
-gpgpu_operand_collector_num_out_ports_sp                    1 # number of collector unit in ports (default = 1)
-gpgpu_operand_collector_num_out_ports_dp                    0 # number of collector unit in ports (default = 0)
-gpgpu_operand_collector_num_out_ports_sfu                    1 # number of collector unit in ports (default = 1)
-gpgpu_operand_collector_num_out_ports_int                    0 # number of collector unit in ports (default = 0)
-gpgpu_operand_collector_num_out_ports_tensor_core                    1 # number of collector unit in ports (default = 1)
-gpgpu_operand_collector_num_out_ports_mem                    1 # number of collector unit in ports (default = 1)
-gpgpu_operand_collector_num_out_ports_gen                    8 # number of collector unit in ports (default = 0)
-gpgpu_coalesce_arch                   60 # Coalescing arch (GT200 = 13, Fermi = 20)
-gpgpu_num_sched_per_core                    4 # Number of warp schedulers per core
-gpgpu_max_insn_issue_per_warp                    1 # Max number of instructions that can be issued per warp in one cycle by scheduler (either 1 or 2)
-gpgpu_dual_issue_diff_exec_units                    1 # should dual issue use two different execution unit resources (Default = 1)
-gpgpu_simt_core_sim_order                    1 # Select the simulation order of cores in a cluster (0=Fix, 1=Round-Robin)
-gpgpu_pipeline_widths 4,4,4,4,4,4,4,4,4,4,8,4,4 # Pipeline widths ID_OC_SP,ID_OC_DP,ID_OC_INT,ID_OC_SFU,ID_OC_MEM,OC_EX_SP,OC_EX_DP,OC_EX_INT,OC_EX_SFU,OC_EX_MEM,EX_WB,ID_OC_TENSOR_CORE,OC_EX_TENSOR_CORE
-gpgpu_tensor_core_avail                    1 # Tensor Core Available (default=0)
-gpgpu_num_sp_units                     4 # Number of SP units (default=1)
-gpgpu_num_dp_units                     4 # Number of DP units (default=0)
-gpgpu_num_int_units                    4 # Number of INT units (default=0)
-gpgpu_num_sfu_units                    4 # Number of SF units (default=1)
-gpgpu_num_tensor_core_units                    4 # Number of tensor_core units (default=1)
-gpgpu_num_mem_units                    1 # Number if ldst units (default=1) WARNING: not hooked up to anything
-gpgpu_scheduler                      gto # Scheduler configuration: < lrr | gto | two_level_active > If two_level_active:<num_active_warps>:<inner_prioritization>:<outer_prioritization>For complete list of prioritization values see shader.h enum scheduler_prioritization_typeDefault: gto
-gpgpu_concurrent_kernel_sm                    0 # Support concurrent kernels on a SM (default = disabled)
-gpgpu_perfect_inst_const_cache                    1 # perfect inst and const cache mode, so all inst and const hits in the cache(default = disabled)
-gpgpu_inst_fetch_throughput                    4 # the number of fetched intruction per warp each cycle
-gpgpu_reg_file_port_throughput                    2 # the number ports of the register file
-specialized_unit_1         0,4,4,4,4,BRA # specialized unit config {<enabled>,<num_units>:<latency>:<initiation>,<ID_OC_SPEC>:<OC_EX_SPEC>,<NAME>}
-specialized_unit_2         0,4,4,4,4,BRA # specialized unit config {<enabled>,<num_units>:<latency>:<initiation>,<ID_OC_SPEC>:<OC_EX_SPEC>,<NAME>}
-specialized_unit_3         0,4,4,4,4,BRA # specialized unit config {<enabled>,<num_units>:<latency>:<initiation>,<ID_OC_SPEC>:<OC_EX_SPEC>,<NAME>}
-specialized_unit_4         0,4,4,4,4,BRA # specialized unit config {<enabled>,<num_units>:<latency>:<initiation>,<ID_OC_SPEC>:<OC_EX_SPEC>,<NAME>}
-specialized_unit_5         0,4,4,4,4,BRA # specialized unit config {<enabled>,<num_units>:<latency>:<initiation>,<ID_OC_SPEC>:<OC_EX_SPEC>,<NAME>}
-specialized_unit_6         0,4,4,4,4,BRA # specialized unit config {<enabled>,<num_units>:<latency>:<initiation>,<ID_OC_SPEC>:<OC_EX_SPEC>,<NAME>}
-specialized_unit_7         0,4,4,4,4,BRA # specialized unit config {<enabled>,<num_units>:<latency>:<initiation>,<ID_OC_SPEC>:<OC_EX_SPEC>,<NAME>}
-specialized_unit_8         0,4,4,4,4,BRA # specialized unit config {<enabled>,<num_units>:<latency>:<initiation>,<ID_OC_SPEC>:<OC_EX_SPEC>,<NAME>}
-gpgpu_perf_sim_memcpy                    1 # Fill the L2 cache on memcpy
-gpgpu_simple_dram_model                    0 # simple_dram_model with fixed latency and BW
-gpgpu_dram_scheduler                    1 # 0 = fifo, 1 = FR-FCFS (defaul)
-gpgpu_dram_partition_queues          64:64:64:64 # i2$:$2d:d2$:$2i
-l2_ideal                               0 # Use a ideal L2 cache that always hit
-gpgpu_cache:dl2     S:32:128:24,L:B:m:L:P,A:192:4,32:0,32 # unified banked L2 data cache config  {<nsets>:<bsize>:<assoc>,<rep>:<wr>:<alloc>:<wr_alloc>,<mshr>:<N>:<merge>,<mq>}
-gpgpu_cache:dl2_texture_only                    0 # L2 cache used for texture only
-gpgpu_n_mem                           32 # number of memory modules (e.g. memory controllers) in gpu
-gpgpu_n_sub_partition_per_mchannel                    2 # number of memory subpartition in each memory module
-gpgpu_n_mem_per_ctrlr                    1 # number of memory chips per memory controller
-gpgpu_memlatency_stat                   14 # track and display latency statistics 0x2 enables MC, 0x4 enables queue logs
-gpgpu_frfcfs_dram_sched_queue_size                   64 # 0 = unlimited (default); # entries per chip
-gpgpu_dram_return_queue_size                  192 # 0 = unlimited (default); # entries per chip
-gpgpu_dram_buswidth                   16 # default = 4 bytes (8 bytes per cycle at DDR)
-gpgpu_dram_burst_length                    2 # Burst length of each DRAM request (default = 4 data bus cycle)
-dram_data_command_freq_ratio                    2 # Frequency ratio between DRAM data bus and command bus (default = 2 times, i.e. DDR)
-gpgpu_dram_timing_opt nbk=16:CCD=1:RRD=3:RCD=12:RAS=28:RP=12:RC=40: CL=12:WL=2:CDLR=3:WR=10:nbkgrp=4:CCDL=2:RTPL=3 # DRAM timing parameters = {nbk:tCCD:tRRD:tRCD:tRAS:tRP:tRC:CL:WL:tCDLR:tWR:nbkgrp:tCCDL:tRTPL}
-gpgpu_l2_rop_latency                  160 # ROP queue latency (default 85)
-dram_latency                         200 # DRAM latency (default 30)
-dram_write_latency                   600 # DRAM write latency (default 100)
-dram_dual_bus_interface                    1 # dual_bus_interface (default = 0) 
-dram_bnk_indexing_policy                    0 # dram_bnk_indexing_policy (0 = normal indexing, 1 = Xoring with the higher bits) (Default = 0)
-dram_bnkgrp_indexing_policy                    1 # dram_bnkgrp_indexing_policy (0 = take higher bits, 1 = take lower bits) (Default = 0)
-dram_seperate_write_queue_enable                    0 # Seperate_Write_Queue_Enable
-dram_write_queue_size             32:28:16 # Write_Queue_Size
-dram_elimnate_rw_turnaround                    0 # elimnate_rw_turnaround i.e set tWTR and tRTW = 0
-icnt_flit_size                        40 # icnt_flit_size
-gpgpu_mem_addr_mapping dramid@8;00000000.00000000.00000000.00000000.0000RRRR.RRRRRRRR.RBBBCCCB.CCCSSSSS # mapping memory address to dram model {dramid@<start bit>;<memory address map>}
-gpgpu_mem_addr_test                    0 # run sweep test to check address mapping for aliased address
-gpgpu_mem_address_mask                    1 # 0 = old addressing mask, 1 = new addressing mask, 2 = new add. mask + flipped bank sel and chip sel bits
-gpgpu_memory_partition_indexing                    0 # 0 = no indexing, 1 = bitwise xoring, 2 = IPoly, 3 = custom indexing
-gpuwattch_xml_file         gpuwattch.xml # GPUWattch XML file
-power_simulation_enabled                    0 # Turn on power simulator (1=On, 0=Off)
-power_per_cycle_dump                    0 # Dump detailed power output each cycle
-power_trace_enabled                    0 # produce a file for the power trace (1=On, 0=Off)
-power_trace_zlevel                     6 # Compression level of the power trace output log (0=no comp, 9=highest)
-steady_power_levels_enabled                    0 # produce a file for the steady power levels (1=On, 0=Off)
-steady_state_definition                  8:4 # allowed deviation:number of samples
-gpgpu_max_cycle                        0 # terminates gpu simulation early (0 = no limit)
-gpgpu_max_insn                         0 # terminates gpu simulation early (0 = no limit)
-gpgpu_max_cta                          0 # terminates gpu simulation early (0 = no limit)
-gpgpu_max_completed_cta                    0 # terminates gpu simulation early (0 = no limit)
-gpgpu_runtime_stat                   500 # display runtime statistics such as dram utilization {<freq>:<flag>}
-liveness_message_freq                    1 # Minimum number of seconds between simulation liveness messages (0 = always print)
-gpgpu_compute_capability_major                    7 # Major compute capability version number
-gpgpu_compute_capability_minor                    0 # Minor compute capability version number
-gpgpu_flush_l1_cache                    1 # Flush L1 cache at the end of each kernel call
-gpgpu_flush_l2_cache                    0 # Flush L2 cache at the end of each kernel call
-gpgpu_deadlock_detect                    1 # Stop the simulation at deadlock (1=on (default), 0=off)
-gpgpu_ptx_instruction_classification                    0 # if enabled will classify ptx instruction types per kernel (Max 255 kernels now)
-gpgpu_ptx_sim_mode                     0 # Select between Performance (default) or Functional simulation (1)
-gpgpu_clock_domains 1132.0:1132.0:1132.0:850.0 # Clock Domain Frequencies in MhZ {<Core Clock>:<ICNT Clock>:<L2 Clock>:<DRAM Clock>}
-gpgpu_max_concurrent_kernel                    8 # maximum kernels that can run concurrently on GPU
-gpgpu_cflog_interval                    0 # Interval between each snapshot in control flow logger
-visualizer_enabled               ea186fa3c8d275cd4773039c98555d08  /home/pli11/Videos/parboil_benchmark/parboil/benchmarks/bfs/build/nvm_lk_default/bfs
Extracting PTX file and ptxas options    1: bfs.1.sm_70.ptx -arch=sm_70 -dlcm=cg  
      0 # Turn on visualizer output (1=On, 0=Off)
-visualizer_outputfile                 NULL # Specifies the output log file for visualizer
-visualizer_zlevel                      6 # Compression level of the visualizer output log (0=no comp, 9=highest)
-gpgpu_stack_size_limit                 1024 # GPU thread stack size
-gpgpu_heap_size_limit              8388608 # GPU malloc heap size 
-gpgpu_runtime_sync_depth_limit                    2 # GPU device runtime synchronize depth
-gpgpu_runtime_pending_launch_count_limit                 2048 # GPU device runtime pending launch count
-trace_enabled                          0 # Turn on traces
-trace_components                    none # comma seperated list of traces to enable. Complete list found in trace_streams.tup. Default none
-trace_sampling_core                    0 # The core which is printed using CORE_DPRINTF. Default 0
-trace_sampling_memory_partition                   -1 # The memory partition which is printed using MEMPART_DPRINTF. Default -1 (i.e. all)
-enable_ptx_file_line_stats                    1 # Turn on PTX source line statistic profiling. (1 = On)
-ptx_line_stats_filename gpgpu_inst_stats.txt # Output file for PTX source line statistics.
-gpgpu_kernel_launch_latency                 5000 # Kernel launch latency in cycles. Default: 0
-gpgpu_cdp_enabled                      0 # Turn on CDP
-gpgpu_TB_launch_latency                    0 # thread block launch latency in cycles. Default: 0
DRAM Timing Options:
nbk                                    16 # number of banks
CCD                                     1 # column to column delay
RRD                                     3 # minimal delay between activation of rows in different banks
RCD                                    12 # row to column delay
RAS                                    28 # time needed to activate row
RP                                     12 # time needed to precharge (deactivate) row
RC                                     40 # row cycle time
CDLR                                    3 # switching from write to read (changes tWTR)
WR                                     10 # last data-in to row precharge
CL                                     12 # CAS latency
WL                                      2 # Write latency
nbkgrp                                  4 # number of bank groups
CCDL                                    2 # column to column delay between accesses to different bank groups
RTPL                                    3 # read to precharge delay between accesses to different bank groups
Total number of memory sub partition = 64
addr_dec_mask[CHIP]  = 0000000000001f00 	high:13 low:8
addr_dec_mask[BK]    = 00000000000e2000 	high:20 low:13
addr_dec_mask[ROW]   = 00000001fff00000 	high:33 low:20
addr_dec_mask[COL]   = 000000000001c0ff 	high:17 low:0
addr_dec_mask[BURST] = 000000000000001f 	high:5 low:0
sub_partition_id_mask = 0000000000002000
GPGPU-Sim uArch: clock freqs: 1132000000.000000:1132000000.000000:1132000000.000000:850000000.000000
GPGPU-Sim uArch: clock periods: 0.00000000088339222615:0.00000000088339222615:0.00000000088339222615:0.00000000117647058824
*** Initializing Memory Statistics ***
GPGPU-Sim uArch: performance model initialization complete.
self exe links to: /home/pli11/Videos/parboil_benchmark/parboil/benchmarks/bfs/build/nvm_lk_default/bfs
self exe links to: /home/pli11/Videos/parboil_benchmark/parboil/benchmarks/bfs/build/nvm_lk_default/bfs
10.1
GPGPU-Sim PTX: __cudaRegisterFatBinary, fat_cubin_handle = 1, filename=default
self exe links to: /home/pli11/Videos/parboil_benchmark/parboil/benchmarks/bfs/build/nvm_lk_default/bfs
Running md5sum using "md5sum /home/pli11/Videos/parboil_benchmark/parboil/benchmarks/bfs/build/nvm_lk_default/bfs "
self exe links to: /home/pli11/Videos/parboil_benchmark/parboil/benchmarks/bfs/build/nvm_lk_default/bfs
Extracting specific PTX file named bfs.1.sm_70.ptx 
GPGPU-Sim PTX: __cudaRegisterFunction _Z10BFS_kernelPiS_P4int2S1_S_S_iS_iiS_ : hostFun 0x0x40456b, fat_cubin_handle = 1
GPGPU-Sim PTX: Parsing bfs.1.sm_70.ptx
GPGPU-Sim PTX: allocating global region for "g_graph_node_ref" from 0x100 to 0x104 (global memory space)
GPGPU-Sim PTX: allocating global region for "g_graph_edge_ref" from 0x104 to 0x108 (global memory space)
GPGPU-Sim PTX: allocating global region for "count" from 0x108 to 0x10c (global memory space)
GPGPU-Sim PTX: allocating global region for "no_of_nodes_vol" from 0x10c to 0x110 (global memory space)
GPGPU-Sim PTX: allocating global region for "stay_vol" from 0x110 to 0x114 (global memory space)
GPGPU-Sim PTX: allocating global region for "shadow_prefix_q" from 0x180 to 0x400180 (global memory space)
GPGPU-Sim PTX: allocating global region for "shadow_next_wf" from 0x400180 to 0x800180 (global memory space)
GPGPU-Sim PTX: allocating global region for "shadow_tail" from 0x800180 to 0xc00180 (global memory space)
GPGPU-Sim PTX: allocating global region for "shadow_elems" from 0xc00180 to 0x1000180 (global memory space)
GPGPU-Sim PTX: allocating global region for "shadow_sharers" from 0x1000180 to 0x1400180 (global memory space)
GPGPU-Sim PTX: allocating global region for "NVM_flag" from 0x1400180 to 0x1800180 (global memory space)
GPGPU-Sim PTX: allocating global region for "NVM_last_iter" from 0x1800180 to 0x1c00180 (global memory space)
GPGPU-Sim PTX: allocating shared region for "_ZZ22BFS_in_GPU_kernel_nvmbPiS_P4int2S1_S_S_iS_iiS_E7local_q" from 0x0 to 0x3240 (shared memory space)
GPGPU-Sim PTX: allocating shared region for "_ZZ22BFS_in_GPU_kernel_nvmbPiS_P4int2S1_S_S_iS_iiS_E8prefix_q" from 0x3240 to 0x3260 (shared memory space)
GPGPU-Sim PTX: allocating shared region for "_ZZ22BFS_in_GPU_kernel_nvmbPiS_P4int2S1_S_S_iS_iiS_E7next_wf" from 0x3280 to 0x3a80 (shared memory space)
GPGPU-Sim PTX: allocating shared region for "_ZZ22BFS_in_GPU_kernel_nvmbPiS_P4int2S1_S_S_iS_iiS_E7tot_sum" from 0x3a80 to 0x3a84 (shared memory space)
GPGPU-Sim PTX: instruction assembly for function '_Z22BFS_in_GPU_kernel_nvmbPiS_P4int2S1_S_S_iS_iiS_'...   done.
GPGPU-Sim PTX: allocating shared region for "_ZZ22BFS_in_GPU_kernel_nvmePiS_P4int2S1_S_S_iS_iiS_E7local_q" from 0x0 to 0x3240 (shared memory space)
GPGPU-Sim PTX: allocating shared region for "_ZZ22BFS_in_GPU_kernel_nvmePiS_P4int2S1_S_S_iS_iiS_E8prefix_q" from 0x3240 to 0x3260 (shared memory space)
GPGPU-Sim PTX: allocating shared region for "_ZZ22BFS_in_GPU_kernel_nvmePiS_P4int2S1_S_S_iS_iiS_E7next_wf" from 0x3280 to 0x3a80 (shared memory space)
GPGPU-Sim PTX: allocating shared region for "_ZZ22BFS_in_GPU_kernel_nvmePiS_P4int2S1_S_S_iS_iiS_E7tot_sum" from 0x3a80 to 0x3a84 (shared memory space)
GPGPU-Sim PTX: instruction assembly for function '_Z22BFS_in_GPU_kernel_nvmePiS_P4int2S1_S_S_iS_iiS_'...   done.
GPGPU-Sim PTX: allocating shared region for "_ZZ22BFS_in_GPU_kernel_nvmoPiS_P4int2S1_S_S_iS_iiS_E7local_q" from 0x0 to 0x3240 (shared memory space)
GPGPU-Sim PTX: allocating shared region for "_ZZ22BFS_in_GPU_kernel_nvmoPiS_P4int2S1_S_S_iS_iiS_E8prefix_q" from 0x3240 to 0x3260 (shared memory space)
GPGPU-Sim PTX: allocating shared region for "_ZZ22BFS_in_GPU_kernel_nvmoPiS_P4int2S1_S_S_iS_iiS_E7next_wf" from 0x3280 to 0x3a80 (shared memory space)
GPGPU-Sim PTX: allocating shared region for "_ZZ22BFS_in_GPU_kernel_nvmoPiS_P4int2S1_S_S_iS_iiS_E7tot_sum" from 0x3a80 to 0x3a84 (shared memory space)
GPGPU-Sim PTX: instruction assembly for function '_Z22BFS_in_GPU_kernel_nvmoPiS_P4int2S1_S_S_iS_iiS_'...   done.
GPGPU-Sim PTX: allocating shared region for "_ZZ22BFS_in_GPU_kernel_nvmrPiS_P4int2S1_S_S_iS_iiS_E7local_q" from 0x0 to 0x3240 (shared memory space)
GPGPU-Sim PTX: allocating shared region for "_ZZ22BFS_in_GPU_kernel_nvmrPiS_P4int2S1_S_S_iS_iiS_E8prefix_q" from 0x3240 to 0x3260 (shared memory space)
GPGPU-Sim PTX: allocating shared region for "_ZZ22BFS_in_GPU_kernel_nvmrPiS_P4int2S1_S_S_iS_iiS_E7next_wf" from 0x3280 to 0x3a80 (shared memory space)
GPGPU-Sim PTX: allocating shared region for "_ZZ22BFS_in_GPU_kernel_nvmrPiS_P4int2S1_S_S_iS_iiS_E7tot_sum" from 0x3a80 to 0x3a84 (shared memory space)
GPGPU-Sim PTX: instruction assembly for function '_Z22BFS_in_GPU_kernel_nvmrPiS_P4int2S1_S_S_iS_iiS_'...   done.
GPGPU-Sim PTX: allocating shared region for "_ZZ22BFS_in_GPU_kernel_nvmuPiS_P4int2S1_S_S_iS_iiS_E7local_q" from 0x0 to 0x3240 (shared memory space)
GPGPU-Sim PTX: allocating shared region for "_ZZ22BFS_in_GPU_kernel_nvmuPiS_P4int2S1_S_S_iS_iiS_E8prefix_q" from 0x3240 to 0x3260 (shared memory space)
GPGPU-Sim PTX: allocating shared region for "_ZZ22BFS_in_GPU_kernel_nvmuPiS_P4int2S1_S_S_iS_iiS_E7next_wf" from 0x3280 to 0x3a80 (shared memory space)
GPGPU-Sim PTX: allocating shared region for "_ZZ22BFS_in_GPU_kernel_nvmuPiS_P4int2S1_S_S_iS_iiS_E7tot_sum" from 0x3a80 to 0x3a84 (shared memory space)
GPGPU-Sim PTX: instruction assembly for function '_Z22BFS_in_GPU_kernel_nvmuPiS_P4int2S1_S_S_iS_iiS_'...   done.
GPGPU-Sim PTX: allocating shared region for "_ZZ22BFS_in_GPU_kernel_nvmxPiS_P4int2S1_S_S_iS_iiS_E7local_q" from 0x0 to 0x3240 (shared memory space)
GPGPU-Sim PTX: allocating shared region for "_ZZ22BFS_in_GPU_kernel_nvmxPiS_P4int2S1_S_S_iS_iiS_E8prefix_q" from 0x3240 to 0x3260 (shared memory space)
GPGPU-Sim PTX: allocating shared region for "_ZZ22BFS_in_GPU_kernel_nvmxPiS_P4int2S1_S_S_iS_iiS_E7next_wf" from 0x3280 to 0x3a80 (shared memory space)
GPGPU-Sim PTX: allocating shared region for "_ZZ22BFS_in_GPU_kernel_nvmxPiS_P4int2S1_S_S_iS_iiS_E7tot_sum" from 0x3a80 to 0x3a84 (shared memory space)
GPGPU-Sim PTX: instruction assembly for function '_Z22BFS_in_GPU_kernel_nvmxPiS_P4int2S1_S_S_iS_iiS_'...   done.
GPGPU-Sim PTX: allocating shared region for "_ZZ22BFS_in_GPU_kernel_nvmsPiS_P4int2S1_S_S_iS_iiS_E7local_q" from 0x0 to 0x3240 (shared memory space)
GPGPU-Sim PTX: allocating shared region for "_ZZ22BFS_in_GPU_kernel_nvmsPiS_P4int2S1_S_S_iS_iiS_E8prefix_q" from 0x3240 to 0x3260 (shared memory space)
GPGPU-Sim PTX: allocating shared region for "_ZZ22BFS_in_GPU_kernel_nvmsPiS_P4int2S1_S_S_iS_iiS_E7next_wf" from 0x3280 to 0x3a80 (shared memory space)
GPGPU-Sim PTX: allocating shared region for "_ZZ22BFS_in_GPU_kernel_nvmsPiS_P4int2S1_S_S_iS_iiS_E7tot_sum" from 0x3a80 to 0x3a84 (shared memory space)
GPGPU-Sim PTX: instruction assembly for function '_Z22BFS_in_GPU_kernel_nvmsPiS_P4int2S1_S_S_iS_iiS_'...   done.
GPGPU-Sim PTX: allocating shared region for "_ZZ22BFS_in_GPU_kernel_nvm3PiS_P4int2S1_S_S_iS_iiS_E7local_q" from 0x0 to 0x3240 (shared memory space)
GPGPU-Sim PTX: allocating shared region for "_ZZ22BFS_in_GPU_kernel_nvm3PiS_P4int2S1_S_S_iS_iiS_E8prefix_q" from 0x3240 to 0x3260 (shared memory space)
GPGPU-Sim PTX: allocating shared region for "_ZZ22BFS_in_GPU_kernel_nvm3PiS_P4int2S1_S_S_iS_iiS_E7next_wf" from 0x3280 to 0x3a80 (shared memory space)
GPGPU-Sim PTX: allocating shared region for "_ZZ22BFS_in_GPU_kernel_nvm3PiS_P4int2S1_S_S_iS_iiS_E7tot_sum" from 0x3a80 to 0x3a84 (shared memory space)
GPGPU-Sim PTX: instruction assembly for function '_Z22BFS_in_GPU_kernel_nvm3PiS_P4int2S1_S_S_iS_iiS_'...   done.
GPGPU-Sim PTX: allocating shared region for "_ZZ22BFS_in_GPU_kernel_nvm4PiS_P4int2S1_S_S_iS_iiS_E7local_q" from 0x0 to 0x3240 (shared memory space)
GPGPU-Sim PTX: allocating shared region for "_ZZ22BFS_in_GPU_kernel_nvm4PiS_P4int2S1_S_S_iS_iiS_E8prefix_q" from 0x3240 to 0x3260 (shared memory space)
GPGPU-Sim PTX: allocating shared region for "_ZZ22BFS_in_GPU_kernel_nvm4PiS_P4int2S1_S_S_iS_iiS_E7next_wf" from 0x3280 to 0x3a80 (shared memory space)
GPGPU-Sim PTX: allocating shared region for "_ZZ22BFS_in_GPU_kernel_nvm4PiS_P4int2S1_S_S_iS_iiS_E7tot_sum" from 0x3a80 to 0x3a84 (shared memory space)
GPGPU-Sim PTX: instruction assembly for function '_Z22BFS_in_GPU_kernel_nvm4PiS_P4int2S1_S_S_iS_iiS_'...   done.
GPGPU-Sim PTX: allocating shared region for "_ZZ17BFS_in_GPU_kernelPiS_P4int2S1_S_S_iS_iiS_E7local_q" from 0x0 to 0x3240 (shared memory space)
GPGPU-Sim PTX: allocating shared region for "_ZZ17BFS_in_GPU_kernelPiS_P4int2S1_S_S_iS_iiS_E8prefix_q" from 0x3240 to 0x3260 (shared memory space)
GPGPU-Sim PTX: allocating shared region for "_ZZ17BFS_in_GPU_kernelPiS_P4int2S1_S_S_iS_iiS_E7next_wf" from 0x3280 to 0x3a80 (shared memory space)
GPGPU-Sim PTX: allocating shared region for "_ZZ17BFS_in_GPU_kernelPiS_P4int2S1_S_S_iS_iiS_E7tot_sum" from 0x3a80 to 0x3a84 (shared memory space)
GPGPU-Sim PTX: instruction assembly for function '_Z17BFS_in_GPU_kernelPiS_P4int2S1_S_S_iS_iiS_'...   done.
GPGPU-Sim PTX: allocating shared region for "_ZZ26BFS_kernel_multi_blk_inGPUPiS_P4int2S1_S_S_S_S_iiS_S_S_S_E7local_q" from 0x0 to 0x3240 (shared memory space)
GPGPU-Sim PTX: allocating shared region for "_ZZ26BFS_kernel_multi_blk_inGPUPiS_P4int2S1_S_S_S_S_iiS_S_S_S_E8prefix_q" from 0x3240 to 0x3260 (shared memory space)
GPGPU-Sim PTX: allocating shared region for "_ZZ26BFS_kernel_multi_blk_inGPUPiS_P4int2S1_S_S_S_S_iiS_S_S_S_E5shift" from 0x3260 to 0x3264 (shared memory space)
GPGPU-Sim PTX: allocating shared region for "_ZZ26BFS_kernel_multi_blk_inGPUPiS_P4int2S1_S_S_S_S_iiS_S_S_S_E14no_of_nodes_sm" from 0x3264 to 0x3268 (shared memory space)
GPGPU-Sim PTX: allocating shared region for "_ZZ26BFS_kernel_multi_blk_inGPUPiS_P4int2S1_S_S_S_S_iiS_S_S_S_E8odd_time" from 0x3268 to 0x326c (shared memory space)
GPGPU-Sim PTX: instruction assembly for function '_Z26BFS_kernel_multi_blk_inGPUPiS_P4int2S1_S_S_S_S_iiS_S_S_S_'...   done.
GPGPU-Sim PTX: allocating shared region for "_ZZ10BFS_kernelPiS_P4int2S1_S_S_iS_iiS_E7local_q" from 0x0 to 0x3240 (shared memory space)
GPGPU-Sim PTX: allocating shared region for "_ZZ10BFS_kernelPiS_P4int2S1_S_S_iS_iiS_E8prefix_q" from 0x3240 to 0x3260 (shared memory space)
GPGPU-Sim PTX: allocating shared region for "_ZZ10BFS_kernelPiS_P4int2S1_S_S_iS_iiS_E5shift" from 0x3260 to 0x3264 (shared memory space)
GPGPU-Sim PTX: instruction assembly for function '_Z10BFS_kernelPiS_P4int2S1_S_S_iS_iiS_'...   done.
GPGPU-Sim PTX: finished parsing EMBEDDED .ptx file bfs.1.sm_70.ptx
GPGPU-Sim PTX: loading globals with explicit initializers... 
GPGPU-Sim PTX: finished loading globals (0 bytes total).
GPGPU-Sim PTX: loading constants with explicit initializers...  done.
GPGPU-Sim PTX: Loading PTXInfo from bfs.1.sm_70.ptx
GPGPU-Sim PTX: Kernel '_Z10BFS_kernelPiS_P4int2S1_S_S_iS_iiS_' : regs=24, lmem=0, smem=12900, cmem=440
GPGPU-Sim PTX: Kernel '_Z26BFS_kernel_multi_blk_inGPUPiS_P4int2S1_S_S_S_S_iiS_S_S_S_' : regs=32, lmem=0, smem=12908, cmem=464
GPGPU-Sim PTX: Kernel '_Z17BFS_in_GPU_kernelPiS_P4int2S1_S_S_iS_iiS_' : regs=32, lmem=0, smem=14948, cmem=440
GPGPU-Sim PTX: Kernel '_Z22BFS_in_GPU_kernel_nvm4PiS_P4int2S1_S_S_iS_iiS_' : regs=38, lmem=0, smem=14948, cmem=440
GPGPU-Sim PTX: Kernel '_Z22BFS_in_GPU_kernel_nvm3PiS_P4int2S1_S_S_iS_iiS_' : regs=38, lmem=0, smem=14948, cmem=440
GPGPU-Sim PTX: Kernel '_Z22BFS_in_GPU_kernel_nvmsPiS_P4int2S1_S_S_iS_iiS_' : regs=38, lmem=0, smem=14948, cmem=440
GPGPU-Sim PTX: Kernel '_Z22BFS_in_GPU_kernel_nvmxPiS_P4int2S1_S_S_iS_iiS_' : regs=32, lmem=0, smem=14948, cmem=440
GPGPU-Sim PTX: Kernel '_Z22BFS_in_GPU_kernel_nvmuPiS_P4int2S1_S_S_iS_iiS_' : regs=32, lmem=0, smem=14948, cmem=440
GPGPU-Sim PTX: Kernel '_Z22BFS_in_GPU_kernel_nvmrPiS_P4int2S1_S_S_iS_iiS_' : regs=32, lmem=0, smem=14948, cmem=440
GPGPU-Sim PTX: Kernel '_Z22BFS_in_GPU_kernel_nvmoPiS_P4int2S1_S_S_iS_iiS_' : regs=32, lmem=0, smem=14948, cmem=440
GPGPU-Sim PTX: Kernel '_Z22BFS_in_GPU_kernel_nvmePiS_P4int2S1_S_S_iS_iiS_' : regs=32, lmem=0, smem=14948, cmem=440
GPGPU-Sim PTX: Kernel '_Z22BFS_in_GPU_kernel_nvmbPiS_P4int2S1_S_S_iS_iiS_' : regs=32, lmem=0, smem=14948, cmem=440
GPGPU-Sim PTX: __cudaRegisterFunction _Z26BFS_kernel_multi_blk_inGPUPiS_P4int2S1_S_S_S_S_iiS_S_S_S_ : hostFun 0x0x4042be, fat_cubin_handle = 1
GPGPU-Sim PTX: __cudaRegisterFunction _Z17BFS_in_GPU_kernelPiS_P4int2S1_S_S_iS_iiS_ : hostFun 0x0x403fef, fat_cubin_handle = 1
GPGPU-Sim PTX: __cudaRegisterFunction _Z22BFS_in_GPU_kernel_nvm4PiS_P4int2S1_S_S_iS_iiS_ : hostFun 0x0x403d5f, fat_cubin_handle = 1
GPGPU-Sim PTX: __cudaRegisterFunction _Z22BFS_in_GPU_kernel_nvm3PiS_P4int2S1_S_S_iS_iiS_ : hostFun 0x0x403acf, fat_cubin_handle = 1
GPGPU-Sim PTX: __cudaRegisterFunction _Z22BFS_in_GPU_kernel_nvmsPiS_P4int2S1_S_S_iS_iiS_ : hostFun 0x0x40383f, fat_cubin_handle = 1
GPGPU-Sim PTX: __cudaRegisterFunction _Z22BFS_in_GPU_kernel_nvmxPiS_P4int2S1_S_S_iS_iiS_ : hostFun 0x0x4035af, fat_cubin_handle = 1
GPGPU-Sim PTX: __cudaRegisterFunction _Z22BFS_in_GPU_kernel_nvmuPiS_P4int2S1_S_S_iS_iiS_ : hostFun 0x0x40331f, fat_cubin_handle = 1
GPGPU-Sim PTX: __cudaRegisterFunction _Z22BFS_in_GPU_kernel_nvmrPiS_P4int2S1_S_S_iS_iiS_ : hostFun 0x0x40308f, fat_cubin_handle = 1
GPGPU-Sim PTX: __cudaRegisterFunction _Z22BFS_in_GPU_kernel_nvmoPiS_P4int2S1_S_S_iS_iiS_ : hostFun 0x0x402dff, fat_cubin_handle = 1
GPGPU-Sim PTX: __cudaRegisterFunction _Z22BFS_in_GPU_kernel_nvmePiS_P4int2S1_S_S_iS_iiS_ : hostFun 0x0x402b6f, fat_cubin_handle = 1
GPGPU-Sim PTX: __cudaRegisterFunction _Z22BFS_in_GPU_kernel_nvmbPiS_P4int2S1_S_S_iS_iiS_ : hostFun 0x0x4028df, fat_cubin_handle = 1
GPGPU-Sim PTX: in __cudaRegisterTexture:
GPGPU-Sim PTX:   int dim = 1
GPGPU-Sim PTX:   int norm = 0
GPGPU-Sim PTX:   int ext = 0
GPGPU-Sim PTX:   Execution warning: Not finished implementing "void __cudaRegisterTextureInternal(void**, const textureReference*, const void**, const char*, int, int, int, gpgpu_context*)"
GPGPU-Sim PTX: in __cudaRegisterTexture:
GPGPU-Sim PTX:   int dim = 1
GPGPU-Sim PTX:   int norm = 0
GPGPU-Sim PTX:   int ext = 0
GPGPU-Sim PTX:   Execution warning: Not finished implementing "void __cudaRegisterTextureInternal(void**, const textureReference*, const void**, const char*, int, int, int, gpgpu_context*)"
GPGPU-Sim PTX: __cudaRegisterVar: hostVar = 0x60f2dc; deviceAddress = count; deviceName = count
GPGPU-Sim PTX: __cudaRegisterVar: Registering const memory space of 4 bytes
GPGPU-Sim PTX registering global count hostVar to name mapping
GPGPU-Sim PTX: __cudaRegisterVar: hostVar = 0x60f2e0; deviceAddress = no_of_nodes_vol; deviceName = no_of_nodes_vol
GPGPU-Sim PTX: __cudaRegisterVar: Registering const memory space of 4 bytes
GPGPU-Sim PTX registering global no_of_nodes_vol hostVar to name mapping
GPGPU-Sim PTX: __cudaRegisterVar: hostVar = 0x60f2e4; deviceAddress = stay_vol; deviceName = stay_vol
GPGPU-Sim PTX: __cudaRegisterVar: Registering const memory space of 4 bytes
GPGPU-Sim PTX registering global stay_vol hostVar to name mapping
GPGPU-Sim PTX: __cudaRegisterVar: hostVar = 0x60f300; deviceAddress = shadow_prefix_q; deviceName = shadow_prefix_q
GPGPU-Sim PTX: __cudaRegisterVar: Registering const memory space of 4194304 bytes
GPGPU-Sim PTX registering global shadow_prefix_q hostVar to name mapping
GPGPU-Sim PTX: __cudaRegisterVar: hostVar = 0xa0f300; deviceAddress = shadow_next_wf; deviceName = shadow_next_wf
GPGPU-Sim PTX: __cudaRegisterVar: Registering const memory space of 4194304 bytes
GPGPU-Sim PTX registering global shadow_next_wf hostVar to name mapping
GPGPU-Sim PTX: __cudaRegisterVar: hostVar = 0xe0f300; deviceAddress = shadow_tail; deviceName = shadow_tail
GPGPU-Sim PTX: __cudaRegisterVar: Registering const memory space of 4194304 bytes
GPGPU-Sim PTX registering global shadow_tail hostVar to name mapping
GPGPU-Sim PTX: __cudaRegisterVar: hostVar = 0x120f300; deviceAddress = shadow_elems; deviceName = shadow_elems
GPGPU-Sim PTX: __cudaRegisterVar: Registering const memory space of 4194304 bytes
GPGPU-Sim PTX registering global shadow_elems hostVar to name mapping
GPGPU-Sim PTX: __cudaRegisterVar: hostVar = 0x160f300; deviceAddress = shadow_sharers; deviceName = shadow_sharers
GPGPU-Sim PTX: __cudaRegisterVar: Registering const memory space of 4194304 bytes
GPGPU-Sim PTX registering global shadow_sharers hostVar to name mapping
GPGPU-Sim PTX: __cudaRegisterVar: hostVar = 0x1a0f300; deviceAddress = NVM_flag; deviceName = NVM_flag
GPGPU-Sim PTX: __cudaRegisterVar: Registering const memory space of 4194304 bytes
GPGPU-Sim PTX registering global NVM_flag hostVar to name mapping
GPGPU-Sim PTX: __cudaRegisterVar: hostVar = 0x1e0f300; deviceAddress = NVM_last_iter; deviceName = NVM_last_iter
GPGPU-Sim PTX: __cudaRegisterVar: Registering const memory space of 4194304 bytes
GPGPU-Sim PTX registering global NVM_last_iter hostVar to name mapping
/home/pli11/Videos/parboil_benchmark/parboil/benchmarks/bfs/build/nvm_lk_default/bfs -i /home/pli11/Videos/parboil_benchmark/parboil/datasets/bfs/NY/input/graph_input.dat -o /home/pli11/Videos/parboil_benchmark/parboil/benchmarks/bfs/run/NY/bfs.out 3 
GPGPU-Sim PTX: in cudaBindTexture: sizeof(struct textureReference) = 124
GPGPU-Sim PTX:   size = 4294967295
GPGPU-Sim PTX:   texref = 0x60f1e0, array = 0x104806d0
GPGPU-Sim PTX:   devPtr32 = c0000000
GPGPU-Sim PTX:   Name corresponding to textureReference: g_graph_node_ref
GPGPU-Sim PTX:   ChannelFormatDesc: x=32, y=32, z=0, w=0
GPGPU-Sim PTX:   Texture Normalized? = 0
GPGPU-Sim PTX:   texel size = 8
GPGPU-Sim PTX:   texture cache linesize = 128
GPGPU-Sim PTX:   Tx = 8; Ty = 2, Tx_numbits = 3, Ty_numbits = 1
GPGPU-Sim PTX:   Texel size = 8 bytes; texel_size_numbits = 3
GPGPU-Sim PTX:   Binding texture to array starting at devPtr32 = 0xc0000000
GPGPU-Sim PTX:   Texel size = 8 bytes
GPGPU-Sim PTX: devPtr = 0xffffffffc0000000
GPGPU-Sim PTX: in cudaBindTexture: sizeof(struct textureReference) = 124
GPGPU-Sim PTX:   size = 4294967295
GPGPU-Sim PTX:   texref = 0x60f260, array = 0x104807d0
GPGPU-Sim PTX:   devPtr32 = c0211300
GPGPU-Sim PTX:   Name corresponding to textureReference: g_graph_edge_ref
GPGPU-Sim PTX:   ChannelFormatDesc: x=32, y=32, z=0, w=0
GPGPU-Sim PTX:   Texture Normalized? = 0
GPGPU-Sim PTX:   texel size = 8
GPGPU-Sim PTX:   texture cache linesize = 128
GPGPU-Sim PTX:   Tx = 8; Ty = 2, Tx_numbits = 3, Ty_numbits = 1
GPGPU-Sim PTX:   Texel size = 8 bytes; texel_size_numbits = 3
GPGPU-Sim PTX:   Binding texture to array starting at devPtr32 = 0xc0211300
GPGPU-Sim PTX:   Texel size = 8 bytes
GPGPU-Sim PTX: devPtr = 0xffffffffc0211300
Starting GPU kernel
GPGPU-Sim: synchronize waiting for inactive GPU simulation
GPGPU-Sim API: Stream Manager State
GPGPU-Sim: detected inactive GPU simulation thread
event update
grid size 1
GPGPU-Sim: synchronize waiting for inactive GPU simulation
GPGPU-Sim API: Stream Manager State
GPGPU-Sim: detected inactive GPU simulation thread
GPGPU-Sim PTX: Setting up arguments for 8 bytes starting at 0x7fffe8c43878..
GPGPU-Sim PTX: Setting up arguments for 8 bytes starting at 0x7fffe8c43870..
GPGPU-Sim PTX: Setting up arguments for 8 bytes starting at 0x7fffe8c43868..
GPGPU-Sim PTX: Setting up arguments for 8 bytes starting at 0x7fffe8c43860..
GPGPU-Sim PTX: Setting up arguments for 8 bytes starting at 0x7fffe8c43858..
GPGPU-Sim PTX: Setting up arguments for 8 bytes starting at 0x7fffe8c43850..
GPGPU-Sim PTX: Setting up arguments for 4 bytes starting at 0x7fffe8c43930..
GPGPU-Sim PTX: Setting up arguments for 8 bytes starting at 0x7fffe8c43938..
GPGPU-Sim PTX: Setting up arguments for 4 bytes starting at 0x7fffe8c43940..
GPGPU-Sim PTX: Setting up arguments for 4 bytes starting at 0x7fffe8c43948..
GPGPU-Sim PTX: Setting up arguments for 8 bytes starting at 0x7fffe8c43950..

GPGPU-Sim PTX: cudaLaunch for 0x0x403acf (mode=performance simulation) on stream 0
GPGPU-Sim PTX: finding reconvergence points for '_Z22BFS_in_GPU_kernel_nvm3PiS_P4int2S1_S_S_iS_iiS_'...
GPGPU-Sim PTX: Finding dominators for '_Z22BFS_in_GPU_kernel_nvm3PiS_P4int2S1_S_S_iS_iiS_'...
GPGPU-Sim PTX: Finding immediate dominators for '_Z22BFS_in_GPU_kernel_nvm3PiS_P4int2S1_S_S_iS_iiS_'...
GPGPU-Sim PTX: Finding postdominators for '_Z22BFS_in_GPU_kernel_nvm3PiS_P4int2S1_S_S_iS_iiS_'...
GPGPU-Sim PTX: Finding immediate postdominators for '_Z22BFS_in_GPU_kernel_nvm3PiS_P4int2S1_S_S_iS_iiS_'...
GPGPU-Sim PTX: pre-decoding instructions for '_Z22BFS_in_GPU_kernel_nvm3PiS_P4int2S1_S_S_iS_iiS_'...
GPGPU-Sim PTX: reconvergence points for _Z22BFS_in_GPU_kernel_nvm3PiS_P4int2S1_S_S_iS_iiS_...
GPGPU-Sim PTX:  1 (potential) branch divergence @  PC=0x5468 (bfs.1.sm_70.ptx:4067) @%p5 bra BB7_2;
GPGPU-Sim PTX:    immediate post dominator      @  PC=0x5480 (bfs.1.sm_70.ptx:4073) mov.u32 %r61, %tid.y;
GPGPU-Sim PTX:  2 (potential) branch divergence @  PC=0x5618 (bfs.1.sm_70.ptx:4124) bra.uni BB7_3;
GPGPU-Sim PTX:    immediate post dominator      @  PC=0x5648 (bfs.1.sm_70.ptx:4136) setp.ne.s32%p7, %r2, %r3;
GPGPU-Sim PTX:  3 (potential) branch divergence @  PC=0x5650 (bfs.1.sm_70.ptx:4137) @%p7 bra BB7_5;
GPGPU-Sim PTX:    immediate post dominator      @  PC=0x5680 (bfs.1.sm_70.ptx:4152) setp.lt.u32%p1, %r1, 8;
GPGPU-Sim PTX:  4 (potential) branch divergence @  PC=0x5690 (bfs.1.sm_70.ptx:4154) @!%p1 bra BB7_7;
GPGPU-Sim PTX:    immediate post dominator      @  PC=0x56c0 (bfs.1.sm_70.ptx:4166) bar.sync 0;
GPGPU-Sim PTX:  5 (potential) branch divergence @  PC=0x5698 (bfs.1.sm_70.ptx:4155) bra.uni BB7_6;
GPGPU-Sim PTX:    immediate post dominator      @  PC=0x56a0 (bfs.1.sm_70.ptx:4158) mov.u32 %r87, 0;
GPGPU-Sim PTX:  6 (potential) branch divergence @  PC=0x56d0 (bfs.1.sm_70.ptx:4168) @%p8 bra BB7_55;
GPGPU-Sim PTX:    immediate post dominator      @  PC=0x5d58 (bfs.1.sm_70.ptx:4455) setp.eq.s32%p2, %r1, 0;
GPGPU-Sim PTX:  7 (potential) branch divergence @  PC=0x56e8 (bfs.1.sm_70.ptx:4172) @%p9 bra BB7_10;
GPGPU-Sim PTX:    immediate post dominator      @  PC=0x5710 (bfs.1.sm_70.ptx:4183) mul.wide.s32 %rd37, %r223, 4;
GPGPU-Sim PTX:  8 (potential) branch divergence @  PC=0x56f0 (bfs.1.sm_70.ptx:4173) bra.uni BB7_9;
GPGPU-Sim PTX:    immediate post dominator      @  PC=0x5708 (bfs.1.sm_70.ptx:4180) ld.shared.u32 %r223, [%r9];
GPGPU-Sim PTX:  9 (potential) branch divergence @  PC=0x5700 (bfs.1.sm_70.ptx:4177) bra.uni BB7_11;
GPGPU-Sim PTX:    immediate post dominator      @  PC=0x5710 (bfs.1.sm_70.ptx:4183) mul.wide.s32 %rd37, %r223, 4;
GPGPU-Sim PTX: 10 (potential) branch divergence @  PC=0x5758 (bfs.1.sm_70.ptx:4192) @%p10 bra BB7_55;
GPGPU-Sim PTX:    immediate post dominator      @  PC=0x5d58 (bfs.1.sm_70.ptx:4455) setp.eq.s32%p2, %r1, 0;
GPGPU-Sim PTX: 11 (potential) branch divergence @  PC=0x5788 (bfs.1.sm_70.ptx:4199) @%p11 bra BB7_33;
GPGPU-Sim PTX:    immediate post dominator      @  PC=0x5a18 (bfs.1.sm_70.ptx:4315) setp.lt.u32%p23, %r22, 4;
GPGPU-Sim PTX: 12 (potential) branch divergence @  PC=0x5798 (bfs.1.sm_70.ptx:4202) @%p12 bra BB7_27;
GPGPU-Sim PTX:    immediate post dominator      @  PC=0x5950 (bfs.1.sm_70.ptx:4280) tex.1d.v4.s32.s32{%r31, %r116, %r117, %r118}, [g_graph_edge_ref, {%r227}];
GPGPU-Sim PTX: 13 (potential) branch divergence @  PC=0x57a8 (bfs.1.sm_70.ptx:4205) @%p13 bra BB7_15;
GPGPU-Sim PTX:    immediate post dominator      @  PC=0x5888 (bfs.1.sm_70.ptx:4245) tex.1d.v4.s32.s32{%r27, %r105, %r106, %r107}, [g_graph_edge_ref, {%r21}];
GPGPU-Sim PTX: 14 (potential) branch divergence @  PC=0x57b0 (bfs.1.sm_70.ptx:4206) bra.uni BB7_16;
GPGPU-Sim PTX:    immediate post dominator      @  PC=0x57c8 (bfs.1.sm_70.ptx:4213) tex.1d.v4.s32.s32{%r24, %r94, %r95, %r96}, [g_graph_edge_ref, {%r227}];
GPGPU-Sim PTX: 15 (potential) branch divergence @  PC=0x57c0 (bfs.1.sm_70.ptx:4210) bra.uni BB7_21;
GPGPU-Sim PTX:    immediate post dominator      @  PC=0x5888 (bfs.1.sm_70.ptx:4245) tex.1d.v4.s32.s32{%r27, %r105, %r106, %r107}, [g_graph_edge_ref, {%r21}];
GPGPU-Sim PTX: 16 (potential) branch divergence @  PC=0x5800 (bfs.1.sm_70.ptx:4220) @%p14 bra BB7_21;
GPGPU-Sim PTX:    immediate post dominator      @  PC=0x5888 (bfs.1.sm_70.ptx:4245) tex.1d.v4.s32.s32{%r27, %r105, %r106, %r107}, [g_graph_edge_ref, {%r21}];
GPGPU-Sim PTX: 17 (potential) branch divergence @  PC=0x5828 (bfs.1.sm_70.ptx:4226) @%p15 bra BB7_21;
GPGPU-Sim PTX:    immediate post dominator      @  PC=0x5888 (bfs.1.sm_70.ptx:4245) tex.1d.v4.s32.s32{%r27, %r105, %r106, %r107}, [g_graph_edge_ref, {%r21}];
GPGPU-Sim PTX: 18 (potential) branch divergence @  PC=0x5840 (bfs.1.sm_70.ptx:4230) @%p16 bra BB7_20;
GPGPU-Sim PTX:    immediate post dominator      @  PC=0x5888 (bfs.1.sm_70.ptx:4245) tex.1d.v4.s32.s32{%r27, %r105, %r106, %r107}, [g_graph_edge_ref, {%r21}];
GPGPU-Sim PTX: 19 (potential) branch divergence @  PC=0x5848 (bfs.1.sm_70.ptx:4231) bra.uni BB7_19;
GPGPU-Sim PTX:    immediate post dominator      @  PC=0x5868 (bfs.1.sm_70.ptx:4239) mad.lo.s32 %r101, %r7, 1600, %r75;
GPGPU-Sim PTX: 20 (potential) branch divergence @  PC=0x5860 (bfs.1.sm_70.ptx:4236) bra.uni BB7_21;
GPGPU-Sim PTX:    immediate post dominator      @  PC=0x5888 (bfs.1.sm_70.ptx:4245) tex.1d.v4.s32.s32{%r27, %r105, %r106, %r107}, [g_graph_edge_ref, {%r21}];
GPGPU-Sim PTX: 21 (potential) branch divergence @  PC=0x58c0 (bfs.1.sm_70.ptx:4252) @%p17 bra BB7_26;
GPGPU-Sim PTX:    immediate post dominator      @  PC=0x5948 (bfs.1.sm_70.ptx:4277) add.s32 %r227, %r21, 1;
GPGPU-Sim PTX: 22 (potential) branch divergence @  PC=0x58e8 (bfs.1.sm_70.ptx:4258) @%p18 bra BB7_26;
GPGPU-Sim PTX:    immediate post dominator      @  PC=0x5948 (bfs.1.sm_70.ptx:4277) add.s32 %r227, %r21, 1;
GPGPU-Sim PTX: 23 (potential) branch divergence @  PC=0x5900 (bfs.1.sm_70.ptx:4262) @%p19 bra BB7_25;
GPGPU-Sim PTX:    immediate post dominator      @  PC=0x5948 (bfs.1.sm_70.ptx:4277) add.s32 %r227, %r21, 1;
GPGPU-Sim PTX: 24 (potential) branch divergence @  PC=0x5908 (bfs.1.sm_70.ptx:4263) bra.uni BB7_24;
GPGPU-Sim PTX:    immediate post dominator      @  PC=0x5928 (bfs.1.sm_70.ptx:4271) mad.lo.s32 %r112, %r7, 1600, %r75;
GPGPU-Sim PTX: 25 (potential) branch divergence @  PC=0x5920 (bfs.1.sm_70.ptx:4268) bra.uni BB7_26;
GPGPU-Sim PTX:    immediate post dominator      @  PC=0x5948 (bfs.1.sm_70.ptx:4277) add.s32 %r227, %r21, 1;
GPGPU-Sim PTX: 26 (potential) branch divergence @  PC=0x5988 (bfs.1.sm_70.ptx:4287) @%p20 bra BB7_32;
GPGPU-Sim PTX:    immediate post dominator      @  PC=0x5a10 (bfs.1.sm_70.ptx:4312) add.s32 %r227, %r227, 1;
GPGPU-Sim PTX: 27 (potential) branch divergence @  PC=0x59b0 (bfs.1.sm_70.ptx:4293) @%p21 bra BB7_32;
GPGPU-Sim PTX:    immediate post dominator      @  PC=0x5a10 (bfs.1.sm_70.ptx:4312) add.s32 %r227, %r227, 1;
GPGPU-Sim PTX: 28 (potential) branch divergence @  PC=0x59c8 (bfs.1.sm_70.ptx:4297) @%p22 bra BB7_31;
GPGPU-Sim PTX:    immediate post dominator      @  PC=0x5a10 (bfs.1.sm_70.ptx:4312) add.s32 %r227, %r227, 1;
GPGPU-Sim PTX: 29 (potential) branch divergence @  PC=0x59d0 (bfs.1.sm_70.ptx:4298) bra.uni BB7_30;
GPGPU-Sim PTX:    immediate post dominator      @  PC=0x59f0 (bfs.1.sm_70.ptx:4306) mad.lo.s32 %r123, %r7, 1600, %r75;
GPGPU-Sim PTX: 30 (potential) branch divergence @  PC=0x59e8 (bfs.1.sm_70.ptx:4303) bra.uni BB7_32;
GPGPU-Sim PTX:    immediate post dominator      @  PC=0x5a10 (bfs.1.sm_70.ptx:4312) add.s32 %r227, %r227, 1;
GPGPU-Sim PTX: 31 (potential) branch divergence @  PC=0x5a20 (bfs.1.sm_70.ptx:4316) @%p23 bra BB7_55;
GPGPU-Sim PTX:    immediate post dominator      @  PC=0x5d58 (bfs.1.sm_70.ptx:4455) setp.eq.s32%p2, %r1, 0;
GPGPU-Sim PTX: 32 (potential) branch divergence @  PC=0x5a60 (bfs.1.sm_70.ptx:4326) @%p24 bra BB7_39;
GPGPU-Sim PTX:    immediate post dominator      @  PC=0x5ae8 (bfs.1.sm_70.ptx:4351) add.s32 %r38, %r227, 1;
GPGPU-Sim PTX: 33 (potential) branch divergence @  PC=0x5a88 (bfs.1.sm_70.ptx:4332) @%p25 bra BB7_39;
GPGPU-Sim PTX:    immediate post dominator      @  PC=0x5ae8 (bfs.1.sm_70.ptx:4351) add.s32 %r38, %r227, 1;
GPGPU-Sim PTX: 34 (potential) branch divergence @  PC=0x5aa0 (bfs.1.sm_70.ptx:4336) @%p26 bra BB7_38;
GPGPU-Sim PTX:    immediate post dominator      @  PC=0x5ae8 (bfs.1.sm_70.ptx:4351) add.s32 %r38, %r227, 1;
GPGPU-Sim PTX: 35 (potential) branch divergence @  PC=0x5aa8 (bfs.1.sm_70.ptx:4337) bra.uni BB7_37;
GPGPU-Sim PTX:    immediate post dominator      @  PC=0x5ac8 (bfs.1.sm_70.ptx:4345) mad.lo.s32 %r134, %r7, 1600, %r75;
GPGPU-Sim PTX: 36 (potential) branch divergence @  PC=0x5ac0 (bfs.1.sm_70.ptx:4342) bra.uni BB7_39;
GPGPU-Sim PTX:    immediate post dominator      @  PC=0x5ae8 (bfs.1.sm_70.ptx:4351) add.s32 %r38, %r227, 1;
GPGPU-Sim PTX: 37 (potential) branch divergence @  PC=0x5b28 (bfs.1.sm_70.ptx:4359) @%p27 bra BB7_44;
GPGPU-Sim PTX:    immediate post dominator      @  PC=0x5bb0 (bfs.1.sm_70.ptx:4384) add.s32 %r41, %r38, 1;
GPGPU-Sim PTX: 38 (potential) branch divergence @  PC=0x5b50 (bfs.1.sm_70.ptx:4365) @%p28 bra BB7_44;
GPGPU-Sim PTX:    immediate post dominator      @  PC=0x5bb0 (bfs.1.sm_70.ptx:4384) add.s32 %r41, %r38, 1;
GPGPU-Sim PTX: 39 (potential) branch divergence @  PC=0x5b68 (bfs.1.sm_70.ptx:4369) @%p29 bra BB7_43;
GPGPU-Sim PTX:    immediate post dominator      @  PC=0x5bb0 (bfs.1.sm_70.ptx:4384) add.s32 %r41, %r38, 1;
GPGPU-Sim PTX: 40 (potential) branch divergence @  PC=0x5b70 (bfs.1.sm_70.ptx:4370) bra.uni BB7_42;
GPGPU-Sim PTX:    immediate post dominator      @  PC=0x5b90 (bfs.1.sm_70.ptx:4378) mad.lo.s32 %r145, %r7, 1600, %r75;
GPGPU-Sim PTX: 41 (potential) branch divergence @  PC=0x5b88 (bfs.1.sm_70.ptx:4375) bra.uni BB7_44;
GPGPU-Sim PTX:    immediate post dominator      @  PC=0x5bb0 (bfs.1.sm_70.ptx:4384) add.s32 %r41, %r38, 1;
GPGPU-Sim PTX: 42 (potential) branch divergence @  PC=0x5bf0 (bfs.1.sm_70.ptx:4392) @%p30 bra BB7_49;
GPGPU-Sim PTX:    immediate post dominator      @  PC=0x5c78 (bfs.1.sm_70.ptx:4417) add.s32 %r44, %r41, 1;
GPGPU-Sim PTX: 43 (potential) branch divergence @  PC=0x5c18 (bfs.1.sm_70.ptx:4398) @%p31 bra BB7_49;
GPGPU-Sim PTX:    immediate post dominator      @  PC=0x5c78 (bfs.1.sm_70.ptx:4417) add.s32 %r44, %r41, 1;
GPGPU-Sim PTX: 44 (potential) branch divergence @  PC=0x5c30 (bfs.1.sm_70.ptx:4402) @%p32 bra BB7_48;
GPGPU-Sim PTX:    immediate post dominator      @  PC=0x5c78 (bfs.1.sm_70.ptx:4417) add.s32 %r44, %r41, 1;
GPGPU-Sim PTX: 45 (potential) branch divergence @  PC=0x5c38 (bfs.1.sm_70.ptx:4403) bra.uni BB7_47;
GPGPU-Sim PTX:    immediate post dominator      @  PC=0x5c58 (bfs.1.sm_70.ptx:4411) mad.lo.s32 %r156, %r7, 1600, %r75;
GPGPU-Sim PTX: 46 (potential) branch divergence @  PC=0x5c50 (bfs.1.sm_70.ptx:4408) bra.uni BB7_49;
GPGPU-Sim PTX:    immediate post dominator      @  PC=0x5c78 (bfs.1.sm_70.ptx:4417) add.s32 %r44, %r41, 1;
GPGPU-Sim PTX: 47 (potential) branch divergence @  PC=0x5cb8 (bfs.1.sm_70.ptx:4425) @%p33 bra BB7_54;
GPGPU-Sim PTX:    immediate post dominator      @  PC=0x5d40 (bfs.1.sm_70.ptx:4450) add.s32 %r227, %r44, 1;
GPGPU-Sim PTX: 48 (potential) branch divergence @  PC=0x5ce0 (bfs.1.sm_70.ptx:4431) @%p34 bra BB7_54;
GPGPU-Sim PTX:    immediate post dominator      @  PC=0x5d40 (bfs.1.sm_70.ptx:4450) add.s32 %r227, %r44, 1;
GPGPU-Sim PTX: 49 (potential) branch divergence @  PC=0x5cf8 (bfs.1.sm_70.ptx:4435) @%p35 bra BB7_53;
GPGPU-Sim PTX:    immediate post dominator      @  PC=0x5d40 (bfs.1.sm_70.ptx:4450) add.s32 %r227, %r44, 1;
GPGPU-Sim PTX: 50 (potential) branch divergence @  PC=0x5d00 (bfs.1.sm_70.ptx:4436) bra.uni BB7_52;
GPGPU-Sim PTX:    immediate post dominator      @  PC=0x5d20 (bfs.1.sm_70.ptx:4444) mad.lo.s32 %r167, %r7, 1600, %r75;
GPGPU-Sim PTX: 51 (potential) branch divergence @  PC=0x5d18 (bfs.1.sm_70.ptx:4441) bra.uni BB7_54;
GPGPU-Sim PTX:    immediate post dominator      @  PC=0x5d40 (bfs.1.sm_70.ptx:4450) add.s32 %r227, %r44, 1;
GPGPU-Sim PTX: 52 (potential) branch divergence @  PC=0x5d50 (bfs.1.sm_70.ptx:4452) @%p36 bra BB7_34;
GPGPU-Sim PTX:    immediate post dominator      @  PC=0x5d58 (bfs.1.sm_70.ptx:4455) setp.eq.s32%p2, %r1, 0;
GPGPU-Sim PTX: 53 (potential) branch divergence @  PC=0x5d68 (bfs.1.sm_70.ptx:4457) @!%p2 bra BB7_57;
GPGPU-Sim PTX:    immediate post dominator      @  PC=0x5f00 (bfs.1.sm_70.ptx:4526) bar.sync 0;
GPGPU-Sim PTX: 54 (potential) branch divergence @  PC=0x5d70 (bfs.1.sm_70.ptx:4458) bra.uni BB7_56;
GPGPU-Sim PTX:    immediate post dominator      @  PC=0x5d78 (bfs.1.sm_70.ptx:4461) mov.u32 %r178, 0;
GPGPU-Sim PTX: 55 (potential) branch divergence @  PC=0x5f18 (bfs.1.sm_70.ptx:4529) @%p37 bra BB7_61;
GPGPU-Sim PTX:    immediate post dominator      @  PC=0x6148 (bfs.1.sm_70.ptx:4641) ret;
GPGPU-Sim PTX: 56 (potential) branch divergence @  PC=0x5f30 (bfs.1.sm_70.ptx:4533) @%p38 bra BB7_62;
GPGPU-Sim PTX:    immediate post dominator      @  PC=0x6148 (bfs.1.sm_70.ptx:4641) ret;
GPGPU-Sim PTX: 57 (potential) branch divergence @  PC=0x5f38 (bfs.1.sm_70.ptx:4534) bra.uni BB7_59;
GPGPU-Sim PTX:    immediate post dominator      @  PC=0x60c8 (bfs.1.sm_70.ptx:4619) setp.ge.s32%p39, %r228, %r49;
GPGPU-Sim PTX: 58 (potential) branch divergence @  PC=0x5f50 (bfs.1.sm_70.ptx:4539) @%p41 bra BB7_64;
GPGPU-Sim PTX:    immediate post dominator      @  PC=0x6008 (bfs.1.sm_70.ptx:4568) setp.eq.s32%p3, %r2, %r3;
GPGPU-Sim PTX: 59 (potential) branch divergence @  PC=0x6000 (bfs.1.sm_70.ptx:4565) @%p42 bra BB7_63;
GPGPU-Sim PTX:    immediate post dominator      @  PC=0x6008 (bfs.1.sm_70.ptx:4568) setp.eq.s32%p3, %r2, %r3;
GPGPU-Sim PTX: 60 (potential) branch divergence @  PC=0x6030 (bfs.1.sm_70.ptx:4575) @!%p3 bra BB7_66;
GPGPU-Sim PTX:    immediate post dominator      @  PC=0x6058 (bfs.1.sm_70.ptx:4587) membar.gl;
GPGPU-Sim PTX: 61 (potential) branch divergence @  PC=0x6038 (bfs.1.sm_70.ptx:4576) bra.uni BB7_65;
GPGPU-Sim PTX:    immediate post dominator      @  PC=0x6040 (bfs.1.sm_70.ptx:4579) mov.u64 %rd87, 0;
GPGPU-Sim PTX: 62 (potential) branch divergence @  PC=0x6068 (bfs.1.sm_70.ptx:4590) @!%p3 bra BB7_68;
GPGPU-Sim PTX:    immediate post dominator      @  PC=0x6098 (bfs.1.sm_70.ptx:4606) setp.ne.s32%p43, %r6, 0;
GPGPU-Sim PTX: 63 (potential) branch divergence @  PC=0x6070 (bfs.1.sm_70.ptx:4591) bra.uni BB7_67;
GPGPU-Sim PTX:    immediate post dominator      @  PC=0x6078 (bfs.1.sm_70.ptx:4594) mov.u32 %r216, 0;
GPGPU-Sim PTX: 64 (potential) branch divergence @  PC=0x60a0 (bfs.1.sm_70.ptx:4607) @%p43 bra BB7_70;
GPGPU-Sim PTX:    immediate post dominator      @  PC=0x5620 (bfs.1.sm_70.ptx:4128) membar.gl;
GPGPU-Sim PTX: 65 (potential) branch divergence @  PC=0x60c0 (bfs.1.sm_70.ptx:4616) bra.uni BB7_70;
GPGPU-Sim PTX:    immediate post dominator      @  PC=0x5620 (bfs.1.sm_70.ptx:4128) membar.gl;
GPGPU-Sim PTX: 66 (potential) branch divergence @  PC=0x60d0 (bfs.1.sm_70.ptx:4620) @%p39 bra BB7_61;
GPGPU-Sim PTX:    immediate post dominator      @  PC=0x6148 (bfs.1.sm_70.ptx:4641) ret;
GPGPU-Sim PTX: 67 (potential) branch divergence @  PC=0x6140 (bfs.1.sm_70.ptx:4638) @%p40 bra BB7_60;
GPGPU-Sim PTX:    immediate post dominator      @  PC=0x6148 (bfs.1.sm_70.ptx:4641) ret;
GPGPU-Sim PTX: ... end of reconvergence points for _Z22BFS_in_GPU_kernel_nvm3PiS_P4int2S1_S_S_iS_iiS_
GPGPU-Sim PTX: ... done pre-decoding instructions for '_Z22BFS_in_GPU_kernel_nvm3PiS_P4int2S1_S_S_iS_iiS_'.
GPGPU-Sim PTX: pushing kernel '_Z22BFS_in_GPU_kernel_nvm3PiS_P4int2S1_S_S_iS_iiS_' to stream 0, gridDim= (1,1,1) blockDim = (512,1,1) 
GPGPU-Sim uArch: Shader 0 bind to kernel 1 '_Z22BFS_in_GPU_kernel_nvm3PiS_P4int2S1_S_S_iS_iiS_'
GPGPU-Sim uArch: CTA/core = 3, limited by: regs
GPGPU-Sim: Reconfigure L1 cache to 112KB
Destroy streams for kernel 1: size 0
kernel_name = _Z22BFS_in_GPU_kernel_nvm3PiS_P4int2S1_S_S_iS_iiS_ 
kernel_launch_uid = 1 
gpu_sim_cycle = 1689637
gpu_sim_insn = 8259787
gpu_ipc =       4.8885
gpu_tot_sim_cycle = 1689637
gpu_tot_sim_insn = 8259787
gpu_tot_ipc =       4.8885
gpu_tot_issued_cta = 1
gpu_occupancy = 24.9972% 
gpu_tot_occupancy = 24.9972% 
max_total_param_size = 0
gpu_stall_dramfull = 0
gpu_stall_icnt2sh    = 0
partiton_level_parallism =       0.1710
partiton_level_parallism_total  =       0.1710
partiton_level_parallism_util =       1.0086
partiton_level_parallism_util_total  =       1.0086
L2_BW  =       7.1727 GB/Sec
L2_BW_total  =       7.1727 GB/Sec
gpu_total_sim_rate=6397
############## bottleneck_stats #############
cycles: core 1689637, icnt 1689637, l2 1689637, dram 1268720
gpu_ipc	4.888
gpu_tot_issued_cta = 1, average cycles = 1689637
n_dram_writes	 0, n_dram_reads	 0
n_GLOBAL_ACC_R	 0 
n_LOCAL_ACC_R	 0 
n_CONST_ACC_R	 0 
n_TEXTURE_ACC_R	 21577 
n_GLOBAL_ACC_W	 0 
n_LOCAL_ACC_W	 0 
n_L1_WRBK_ACC	 0 
n_L2_WRBK_ACC	 719 
n_L1_WR_ALLOC_R	 0 
n_L2_WR_ALLOC_R	 0 

n_sm	 80, n_schedulers	 4
scheduler util	0.001	1
L1D data util	0.003	1	0.236	0
L1D tag util	0.001	1	0.065	0
L2 data util	0.004	64	0.007	2
L2 tag util	0.003	64	0.006	2
n_l2_access	 334566
icnt s2m util	0.000	0	0.000	2	flits per packet: -nan
icnt m2s util	0.000	0	0.000	2	flits per packet: -nan
sum=0
n_mem	 32
dram util	0.001	32	0.001	1

latency_l1_hit:	56720, num_l1_reqs:	2836
L1 hit latency:	20
latency_l2_hit:	58316035, num_l2_reqs:	295730
L2 hit latency:	197
latency_dram:	11955519, num_dram_reqs:	38836
DRAM latency:	307

n_reg	65536, n_smem	98304, n_thread	2048, n_tb	32
reg file	0.938
smem size	0.456
thread slot	0.750
TB slot    	0.094
L1I tag util	0.002	1	0.166	0

n_mem_pipe	1, n_sp_pipe	4, n_sfu_pipe	4
mem pipe util	0.001	1	0.064	0
sp pipe util	0.000	0	0.000	0
sfu pipe util	0.000	0	0.000	0
ldst mem cycle	0.001	1	0.103	0

smem port	0.000	1

n_reg_bank	16
reg port	0.061	16	0.085	3
L1D tag util	0.001	1	0.065	0
L1D fill util	0.000	1	0.020	0
n_l1d_mshr	4096
L1D mshr util	0.000	1
n_l1d_missq	16
L1D missq util	0.000	1
L1D hit rate	0.026
L1D miss rate	0.974
L1D rsfail rate	0.000
L2 tag util	0.003	64	0.006	2
L2 fill util	0.000	64	0.000	0
n_l2_mshr	192
n_l2_missq	32
L2 mshr util	0.000	64	0.000	0
L2 missq util	0.000	64	0.000	2
L2 hit rate	0.884
L2 miss rate	0.116
L2 rsfail rate	0.000

dram activity	0.002	32	0.010	1

load trans eff	0.133
load trans sz	32.000
load_useful_bytes 926772, load_transaction_bytes 6985504, icnt_m2s_bytes 0
n_gmem_load_insns 23609, n_gmem_load_accesses 218297
n_smem_access_insn 52290, n_smem_accesses 64802

tmp_counter/12	0.003

run 0.019, fetch 0.000, sync 0.779, control 0.002, data 0.195, struct 0.004
############ end_bottleneck_stats #############

========= Core cache stats =========
L1I_cache:
	L1I_total_cache_accesses = 0
	L1I_total_cache_misses = 0
	L1I_total_cache_pending_hits = 0
	L1I_total_cache_reservation_fails = 0
L1D_cache:
	L1D_cache_core[0]: Access = 109032, Miss = 106196, Miss_rate = 0.974, Pending_hits = 0, Reservation_fails = 0
	L1D_cache_core[1]: Access = 0, Miss = 0, Miss_rate = -nan, Pending_hits = 0, Reservation_fails = 0
	L1D_cache_core[2]: Access = 0, Miss = 0, Miss_rate = -nan, Pending_hits = 0, Reservation_fails = 0
	L1D_cache_core[3]: Access = 0, Miss = 0, Miss_rate = -nan, Pending_hits = 0, Reservation_fails = 0
	L1D_cache_core[4]: Access = 0, Miss = 0, Miss_rate = -nan, Pending_hits = 0, Reservation_fails = 0
	L1D_cache_core[5]: Access = 0, Miss = 0, Miss_rate = -nan, Pending_hits = 0, Reservation_fails = 0
	L1D_cache_core[6]: Access = 0, Miss = 0, Miss_rate = -nan, Pending_hits = 0, Reservation_fails = 0
	L1D_cache_core[7]: Access = 0, Miss = 0, Miss_rate = -nan, Pending_hits = 0, Reservation_fails = 0
	L1D_cache_core[8]: Access = 0, Miss = 0, Miss_rate = -nan, Pending_hits = 0, Reservation_fails = 0
	L1D_cache_core[9]: Access = 0, Miss = 0, Miss_rate = -nan, Pending_hits = 0, Reservation_fails = 0
	L1D_cache_core[10]: Access = 0, Miss = 0, Miss_rate = -nan, Pending_hits = 0, Reservation_fails = 0
	L1D_cache_core[11]: Access = 0, Miss = 0, Miss_rate = -nan, Pending_hits = 0, Reservation_fails = 0
	L1D_cache_core[12]: Access = 0, Miss = 0, Miss_rate = -nan, Pending_hits = 0, Reservation_fails = 0
	L1D_cache_core[13]: Access = 0, Miss = 0, Miss_rate = -nan, Pending_hits = 0, Reservation_fails = 0
	L1D_cache_core[14]: Access = 0, Miss = 0, Miss_rate = -nan, Pending_hits = 0, Reservation_fails = 0
	L1D_cache_core[15]: Access = 0, Miss = 0, Miss_rate = -nan, Pending_hits = 0, Reservation_fails = 0
	L1D_cache_core[16]: Access = 0, Miss = 0, Miss_rate = -nan, Pending_hits = 0, Reservation_fails = 0
	L1D_cache_core[17]: Access = 0, Miss = 0, Miss_rate = -nan, Pending_hits = 0, Reservation_fails = 0
	L1D_cache_core[18]: Access = 0, Miss = 0, Miss_rate = -nan, Pending_hits = 0, Reservation_fails = 0
	L1D_cache_core[19]: Access = 0, Miss = 0, Miss_rate = -nan, Pending_hits = 0, Reservation_fails = 0
	L1D_cache_core[20]: Access = 0, Miss = 0, Miss_rate = -nan, Pending_hits = 0, Reservation_fails = 0
	L1D_cache_core[21]: Access = 0, Miss = 0, Miss_rate = -nan, Pending_hits = 0, Reservation_fails = 0
	L1D_cache_core[22]: Access = 0, Miss = 0, Miss_rate = -nan, Pending_hits = 0, Reservation_fails = 0
	L1D_cache_core[23]: Access = 0, Miss = 0, Miss_rate = -nan, Pending_hits = 0, Reservation_fails = 0
	L1D_cache_core[24]: Access = 0, Miss = 0, Miss_rate = -nan, Pending_hits = 0, Reservation_fails = 0
	L1D_cache_core[25]: Access = 0, Miss = 0, Miss_rate = -nan, Pending_hits = 0, Reservation_fails = 0
	L1D_cache_core[26]: Access = 0, Miss = 0, Miss_rate = -nan, Pending_hits = 0, Reservation_fails = 0
	L1D_cache_core[27]: Access = 0, Miss = 0, Miss_rate = -nan, Pending_hits = 0, Reservation_fails = 0
	L1D_cache_core[28]: Access = 0, Miss = 0, Miss_rate = -nan, Pending_hits = 0, Reservation_fails = 0
	L1D_cache_core[29]: Access = 0, Miss = 0, Miss_rate = -nan, Pending_hits = 0, Reservation_fails = 0
	L1D_cache_core[30]: Access = 0, Miss = 0, Miss_rate = -nan, Pending_hits = 0, Reservation_fails = 0
	L1D_cache_core[31]: Access = 0, Miss = 0, Miss_rate = -nan, Pending_hits = 0, Reservation_fails = 0
	L1D_cache_core[32]: Access = 0, Miss = 0, Miss_rate = -nan, Pending_hits = 0, Reservation_fails = 0
	L1D_cache_core[33]: Access = 0, Miss = 0, Miss_rate = -nan, Pending_hits = 0, Reservation_fails = 0
	L1D_cache_core[34]: Access = 0, Miss = 0, Miss_rate = -nan, Pending_hits = 0, Reservation_fails = 0
	L1D_cache_core[35]: Access = 0, Miss = 0, Miss_rate = -nan, Pending_hits = 0, Reservation_fails = 0
	L1D_cache_core[36]: Access = 0, Miss = 0, Miss_rate = -nan, Pending_hits = 0, Reservation_fails = 0
	L1D_cache_core[37]: Access = 0, Miss = 0, Miss_rate = -nan, Pending_hits = 0, Reservation_fails = 0
	L1D_cache_core[38]: Access = 0, Miss = 0, Miss_rate = -nan, Pending_hits = 0, Reservation_fails = 0
	L1D_cache_core[39]: Access = 0, Miss = 0, Miss_rate = -nan, Pending_hits = 0, Reservation_fails = 0
	L1D_cache_core[40]: Access = 0, Miss = 0, Miss_rate = -nan, Pending_hits = 0, Reservation_fails = 0
	L1D_cache_core[41]: Access = 0, Miss = 0, Miss_rate = -nan, Pending_hits = 0, Reservation_fails = 0
	L1D_cache_core[42]: Access = 0, Miss = 0, Miss_rate = -nan, Pending_hits = 0, Reservation_fails = 0
	L1D_cache_core[43]: Access = 0, Miss = 0, Miss_rate = -nan, Pending_hits = 0, Reservation_fails = 0
	L1D_cache_core[44]: Access = 0, Miss = 0, Miss_rate = -nan, Pending_hits = 0, Reservation_fails = 0
	L1D_cache_core[45]: Access = 0, Miss = 0, Miss_rate = -nan, Pending_hits = 0, Reservation_fails = 0
	L1D_cache_core[46]: Access = 0, Miss = 0, Miss_rate = -nan, Pending_hits = 0, Reservation_fails = 0
	L1D_cache_core[47]: Access = 0, Miss = 0, Miss_rate = -nan, Pending_hits = 0, Reservation_fails = 0
	L1D_cache_core[48]: Access = 0, Miss = 0, Miss_rate = -nan, Pending_hits = 0, Reservation_fails = 0
	L1D_cache_core[49]: Access = 0, Miss = 0, Miss_rate = -nan, Pending_hits = 0, Reservation_fails = 0
	L1D_cache_core[50]: Access = 0, Miss = 0, Miss_rate = -nan, Pending_hits = 0, Reservation_fails = 0
	L1D_cache_core[51]: Access = 0, Miss = 0, Miss_rate = -nan, Pending_hits = 0, Reservation_fails = 0
	L1D_cache_core[52]: Access = 0, Miss = 0, Miss_rate = -nan, Pending_hits = 0, Reservation_fails = 0
	L1D_cache_core[53]: Access = 0, Miss = 0, Miss_rate = -nan, Pending_hits = 0, Reservation_fails = 0
	L1D_cache_core[54]: Access = 0, Miss = 0, Miss_rate = -nan, Pending_hits = 0, Reservation_fails = 0
	L1D_cache_core[55]: Access = 0, Miss = 0, Miss_rate = -nan, Pending_hits = 0, Reservation_fails = 0
	L1D_cache_core[56]: Access = 0, Miss = 0, Miss_rate = -nan, Pending_hits = 0, Reservation_fails = 0
	L1D_cache_core[57]: Access = 0, Miss = 0, Miss_rate = -nan, Pending_hits = 0, Reservation_fails = 0
	L1D_cache_core[58]: Access = 0, Miss = 0, Miss_rate = -nan, Pending_hits = 0, Reservation_fails = 0
	L1D_cache_core[59]: Access = 0, Miss = 0, Miss_rate = -nan, Pending_hits = 0, Reservation_fails = 0
	L1D_cache_core[60]: Access = 0, Miss = 0, Miss_rate = -nan, Pending_hits = 0, Reservation_fails = 0
	L1D_cache_core[61]: Access = 0, Miss = 0, Miss_rate = -nan, Pending_hits = 0, Reservation_fails = 0
	L1D_cache_core[62]: Access = 0, Miss = 0, Miss_rate = -nan, Pending_hits = 0, Reservation_fails = 0
	L1D_cache_core[63]: Access = 0, Miss = 0, Miss_rate = -nan, Pending_hits = 0, Reservation_fails = 0
	L1D_cache_core[64]: Access = 0, Miss = 0, Miss_rate = -nan, Pending_hits = 0, Reservation_fails = 0
	L1D_cache_core[65]: Access = 0, Miss = 0, Miss_rate = -nan, Pending_hits = 0, Reservation_fails = 0
	L1D_cache_core[66]: Access = 0, Miss = 0, Miss_rate = -nan, Pending_hits = 0, Reservation_fails = 0
	L1D_cache_core[67]: Access = 0, Miss = 0, Miss_rate = -nan, Pending_hits = 0, Reservation_fails = 0
	L1D_cache_core[68]: Access = 0, Miss = 0, Miss_rate = -nan, Pending_hits = 0, Reservation_fails = 0
	L1D_cache_core[69]: Access = 0, Miss = 0, Miss_rate = -nan, Pending_hits = 0, Reservation_fails = 0
	L1D_cache_core[70]: Access = 0, Miss = 0, Miss_rate = -nan, Pending_hits = 0, Reservation_fails = 0
	L1D_cache_core[71]: Access = 0, Miss = 0, Miss_rate = -nan, Pending_hits = 0, Reservation_fails = 0
	L1D_cache_core[72]: Access = 0, Miss = 0, Miss_rate = -nan, Pending_hits = 0, Reservation_fails = 0
	L1D_cache_core[73]: Access = 0, Miss = 0, Miss_rate = -nan, Pending_hits = 0, Reservation_fails = 0
	L1D_cache_core[74]: Access = 0, Miss = 0, Miss_rate = -nan, Pending_hits = 0, Reservation_fails = 0
	L1D_cache_core[75]: Access = 0, Miss = 0, Miss_rate = -nan, Pending_hits = 0, Reservation_fails = 0
	L1D_cache_core[76]: Access = 0, Miss = 0, Miss_rate = -nan, Pending_hits = 0, Reservation_fails = 0
	L1D_cache_core[77]: Access = 0, Miss = 0, Miss_rate = -nan, Pending_hits = 0, Reservation_fails = 0
	L1D_cache_core[78]: Access = 0, Miss = 0, Miss_rate = -nan, Pending_hits = 0, Reservation_fails = 0
	L1D_cache_core[79]: Access = 0, Miss = 0, Miss_rate = -nan, Pending_hits = 0, Reservation_fails = 0
	L1D_total_cache_accesses = 109032
	L1D_total_cache_misses = 106196
	L1D_total_cache_miss_rate = 0.9740
	L1D_total_cache_pending_hits = 0
	L1D_total_cache_reservation_fails = 0
	L1D_cache_data_port_util = 0.002
	L1D_cache_fill_port_util = 0.020
L1C_cache:
	L1C_total_cache_accesses = 0
	L1C_total_cache_misses = 0
	L1C_total_cache_pending_hits = 0
	L1C_total_cache_reservation_fails = 0
L1T_cache:
	L1T_total_cache_accesses = 164542
	L1T_total_cache_misses = 15205
	L1T_total_cache_miss_rate = 0.0924
	L1T_total_cache_pending_hits = 149337
	L1T_total_cache_reservation_fails = 0

Total_core_cache_stats:
	Total_core_cache_stats_breakdown[GLOBAL_ACC_R][HIT] = 2836
	Total_core_cache_stats_breakdown[GLOBAL_ACC_R][HIT_RESERVED] = 0
	Total_core_cache_stats_breakdown[GLOBAL_ACC_R][MISS] = 23850
	Total_core_cache_stats_breakdown[GLOBAL_ACC_R][RESERVATION_FAIL] = 0
	Total_core_cache_stats_breakdown[GLOBAL_ACC_R][SECTOR_MISS] = 17635
	Total_core_cache_stats_breakdown[LOCAL_ACC_R][HIT] = 0
	Total_core_cache_stats_breakdown[LOCAL_ACC_R][HIT_RESERVED] = 0
	Total_core_cache_stats_breakdown[LOCAL_ACC_R][MISS] = 0
	Total_core_cache_stats_breakdown[LOCAL_ACC_R][RESERVATION_FAIL] = 0
	Total_core_cache_stats_breakdown[LOCAL_ACC_R][SECTOR_MISS] = 0
	Total_core_cache_stats_breakdown[CONST_ACC_R][HIT] = 0
	Total_core_cache_stats_breakdown[CONST_ACC_R][HIT_RESERVED] = 0
	Total_core_cache_stats_breakdown[CONST_ACC_R][MISS] = 0
	Total_core_cache_stats_breakdown[CONST_ACC_R][RESERVATION_FAIL] = 0
	Total_core_cache_stats_breakdown[CONST_ACC_R][SECTOR_MISS] = 0
	Total_core_cache_stats_breakdown[TEXTURE_ACC_R][HIT] = 0
	Total_core_cache_stats_breakdown[TEXTURE_ACC_R][HIT_RESERVED] = 149337
	Total_core_cache_stats_breakdown[TEXTURE_ACC_R][MISS] = 15205
	Total_core_cache_stats_breakdown[TEXTURE_ACC_R][RESERVATION_FAIL] = 0
	Total_core_cache_stats_breakdown[TEXTURE_ACC_R][SECTOR_MISS] = 0
	Total_core_cache_stats_breakdown[GLOBAL_ACC_W][HIT] = 0
	Total_core_cache_stats_breakdown[GLOBAL_ACC_W][HIT_RESERVED] = 0
	Total_core_cache_stats_breakdown[GLOBAL_ACC_W][MISS] = 64711
	Total_core_cache_stats_breakdown[GLOBAL_ACC_W][RESERVATION_FAIL] = 0
	Total_core_cache_stats_breakdown[GLOBAL_ACC_W][SECTOR_MISS] = 0
	Total_core_cache_stats_breakdown[LOCAL_ACC_W][HIT] = 0
	Total_core_cache_stats_breakdown[LOCAL_ACC_W][HIT_RESERVED] = 0
	Total_core_cache_stats_breakdown[LOCAL_ACC_W][MISS] = 0
	Total_core_cache_stats_breakdown[LOCAL_ACC_W][RESERVATION_FAIL] = 0
	Total_core_cache_stats_breakdown[LOCAL_ACC_W][SECTOR_MISS] = 0
	Total_core_cache_stats_breakdown[L1_WRBK_ACC][HIT] = 0
	Total_core_cache_stats_breakdown[L1_WRBK_ACC][HIT_RESERVED] = 0
	Total_core_cache_stats_breakdown[L1_WRBK_ACC][MISS] = 0
	Total_core_cache_stats_breakdown[L1_WRBK_ACC][RESERVATION_FAIL] = 0
	Total_core_cache_stats_breakdown[L1_WRBK_ACC][SECTOR_MISS] = 0
	Total_core_cache_stats_breakdown[L2_WRBK_ACC][HIT] = 0
	Total_core_cache_stats_breakdown[L2_WRBK_ACC][HIT_RESERVED] = 0
	Total_core_cache_stats_breakdown[L2_WRBK_ACC][MISS] = 0
	Total_core_cache_stats_breakdown[L2_WRBK_ACC][RESERVATION_FAIL] = 0
	Total_core_cache_stats_breakdown[L2_WRBK_ACC][SECTOR_MISS] = 0
	Total_core_cache_stats_breakdown[INST_ACC_R][HIT] = 0
	Total_core_cache_stats_breakdown[INST_ACC_R][HIT_RESERVED] = 0
	Total_core_cache_stats_breakdown[INST_ACC_R][MISS] = 0
	Total_core_cache_stats_breakdown[INST_ACC_R][RESERVATION_FAIL] = 0
	Total_core_cache_stats_breakdown[INST_ACC_R][SECTOR_MISS] = 0
	Total_core_cache_stats_breakdown[L1_WR_ALLOC_R][HIT] = 0
	Total_core_cache_stats_breakdown[L1_WR_ALLOC_R][HIT_RESERVED] = 0
	Total_core_cache_stats_breakdown[L1_WR_ALLOC_R][MISS] = 0
	Total_core_cache_stats_breakdown[L1_WR_ALLOC_R][RESERVATION_FAIL] = 0
	Total_core_cache_stats_breakdown[L1_WR_ALLOC_R][SECTOR_MISS] = 0
	Total_core_cache_stats_breakdown[L2_WR_ALLOC_R][HIT] = 0
	Total_core_cache_stats_breakdown[L2_WR_ALLOC_R][HIT_RESERVED] = 0
	Total_core_cache_stats_breakdown[L2_WR_ALLOC_R][MISS] = 0
	Total_core_cache_stats_breakdown[L2_WR_ALLOC_R][RESERVATION_FAIL] = 0
	Total_core_cache_stats_breakdown[L2_WR_ALLOC_R][SECTOR_MISS] = 0
	Total_core_cache_stats_breakdown[GLOBAL_ACC_R][TOTAL_ACCESS] = 44321
	Total_core_cache_stats_breakdown[TEXTURE_ACC_R][TOTAL_ACCESS] = 164542
	Total_core_cache_stats_breakdown[GLOBAL_ACC_W][TOTAL_ACCESS] = 64711

Total_core_cache_fail_stats:
Shader 0 warp_id issue ditsribution:
warp_id:
0, 1, 2, 3, 4, 5, 6, 7, 8, 9, 10, 11, 12, 13, 14, 15, 
distro:
73108, 54050, 51496, 47898, 42140, 39939, 37522, 30761, 25832, 20432, 15293, 13377, 12272, 12023, 11098, 10013, 
gpgpu_n_tot_thrd_icount = 15912128
gpgpu_n_tot_w_icount = 497254
gpgpu_n_stall_shd_mem = 416614
gpgpu_n_mem_read_local = 0
gpgpu_n_mem_write_local = 0
gpgpu_n_mem_read_global = 208314
gpgpu_n_mem_write_global = 65432
gpgpu_n_mem_texture = 15205
gpgpu_n_mem_const = 0
gpgpu_n_load_insn  = 231693
gpgpu_n_store_insn = 106672
gpgpu_n_shmem_insn = 836506
gpgpu_n_sstarr_insn = 0
gpgpu_n_tex_insn = 180745
gpgpu_n_const_mem_insn = 0
gpgpu_n_param_mem_insn = 4096
gpgpu_n_shmem_bkconflict = 0
gpgpu_n_cache_bkconflict = 0
gpgpu_n_intrawarp_mshr_merge = 0
gpgpu_n_cmem_portconflict = 0
gpgpu_stall_shd_mem[c_mem][resource_stall] = 0
gpgpu_stall_shd_mem[s_mem][bk_conf] = 12512
gpgpu_stall_shd_mem[gl_mem][resource_stall] = 100695
gpgpu_stall_shd_mem[gl_mem][coal_stall] = 152063
gpgpu_stall_shd_mem[gl_mem][data_port_stall] = 0
gpu_reg_bank_conflict_stalls = 0
Warp Occupancy Distribution:
Stall:124861	W0_Idle:3169576	W0_Scoreboard:2946853	W1:50286	W2:30988	W3:25551	W4:22151	W5:18685	W6:17962	W7:15501	W8:15903	W9:10933	W10:9352	W11:7141	W12:5781	W13:4715	W14:4248	W15:3498	W16:3751	W17:3451	W18:3650	W19:3181	W20:3371	W21:3456	W22:3580	W23:3683	W24:3477	W25:3036	W26:3114	W27:2645	W28:3585	W29:2837	W30:4323	W31:2788	W32:200631
single_issue_nums: WS0:153352	WS1:126444	WS2:115409	WS3:102049	
dual_issue_nums: WS0:0	WS1:0	WS2:0	WS3:0	
traffic_breakdown_coretomem[GLOBAL_ACC_R] = 274704 {8:34338,}
traffic_breakdown_coretomem[GLOBAL_ACC_W] = 2594208 {8:721,40:64711,}
traffic_breakdown_coretomem[GLOBAL_ATOMIC] = 6959040 {40:173976,}
traffic_breakdown_coretomem[TEXTURE_ACC_R] = 121640 {8:15205,}
traffic_breakdown_memtocore[GLOBAL_ACC_R] = 1373520 {40:34338,}
traffic_breakdown_memtocore[GLOBAL_ACC_W] = 523456 {8:65432,}
traffic_breakdown_memtocore[GLOBAL_ATOMIC] = 6959040 {40:173976,}
traffic_breakdown_memtocore[TEXTURE_ACC_R] = 2432800 {40:60820,}
maxmflatency = 590 
max_icnt2mem_latency = 26 
maxmrqlatency = 125 
max_icnt2sh_latency = 204 
averagemflatency = 192 
avg_icnt2mem_latency = 8 
avg_mrq_latency = 7 
avg_icnt2sh_latency = 7 
mrq_lat_table:10190 	4884 	2602 	89 	1415 	3084 	32 	0 	0 	0 	0 	0 	0 	0 	0 	0 	0 	0 	0 	0 	0 	0 	0 	0 	0 	0 	0 	0 	0 	0 	0 	0 	
dq_lat_table:0 	0 	0 	0 	0 	0 	0 	0 	0 	0 	0 	0 	0 	0 	0 	0 	0 	0 	0 	0 	0 	0 	0 	0 	0 	0 	0 	0 	0 	0 	0 	0 	
mf_lat_table:0 	0 	0 	0 	0 	0 	0 	310817 	23680 	69 	0 	0 	0 	0 	0 	0 	0 	0 	0 	0 	0 	0 	0 	0 	0 	0 	0 	0 	0 	0 	0 	0 	
icnt2mem_lat_table:0 	189777 	125 	0 	99049 	0 	0 	0 	0 	0 	0 	0 	0 	0 	0 	0 	0 	0 	0 	0 	0 	0 	0 	0 	
icnt2sh_lat_table:0 	233763 	35568 	27120 	20285 	11770 	5548 	512 	0 	0 	0 	0 	0 	0 	0 	0 	0 	0 	0 	0 	0 	0 	0 	0 	
mf_lat_pw_table:0 	0 	0 	0 	0 	0 	0 	3208 	159 	1 	0 	0 	0 	0 	0 	0 	0 	0 	0 	0 	0 	0 	0 	0 	0 	0 	0 	0 	0 	0 	0 	0 	
maximum concurrent accesses to same row:
dram[0]:        16        16        52         0         8         0         0         0         0         0         0         0        64        64         0         0 
dram[1]:         8        16         0         0         4         0         0         0         0         0         0         0         0        48        64         0 
dram[2]:        20        16         0         0        12         0         0         0         0         0         0         0        52        56         0         0 
dram[3]:        24        20         0        40        16         0         0         0         0         0         0         0         0        52        64         0 
dram[4]:        20        24         0        44         4         0         0         8         0         0         0         0        52        64         0        64 
dram[5]:        16        28        44        44        20         0         0         0         0         0         0         0        52         0        64         0 
dram[6]:        16        24         0        40        16         0         0         0         0         0         0         0        52        64         0        64 
dram[7]:        28        24        40        40        16         8         0         0         0         0         0         0        48        64         0        64 
dram[8]:        20        16         0        40         4         0         0         0         0         0         0         4         0        56         0        64 
[...]
Wasted_Row = 377 
Idle = 1266573 

BW Util Bottlenecks: 
RCDc_limit = 564 
RCDWRc_limit = 0 
WTRc_limit = 0 
RTWc_limit = 0 
CCDLc_limit = 507 
rwq = 0 
CCDLc_limit_alone = 507 
WTRc_limit_alone = 0 
RTWc_limit_alone = 0 

Commands details: 
total_CMD = 1268720 
n_nop = 1267941 
Read = 700 
Write = 0 
L2_Alloc = 0 
L2_WB = 0 
n_act = 47 
n_pre = 33 
n_ref = 0 
n_req = 700 
total_req = 700 

Dual Bus Interface Util: 
issued_total_row = 80 
issued_total_col = 700 
Row_Bus_Util =  0.000063 
CoL_Bus_Util = 0.000552 
Either_Row_CoL_Bus_Util = 0.000614 
Issued_on_Two_Bus_Simul_Util = 0.000001 
issued_two_Eff = 0.001284 
queue_avg = 0.002635 


dram_util_bins: 0 0 0 0 0 0 0 0 0 0
dram_eff_bins: 0 0 0 0 0 0 0 0 0 0
mrqq: max=7 avg=0.00263494
Memory Partition 28: 
Cache L2_bank_056:

Cache L2_bank_057:

In Dram Latency Queue (total = 0): 
DRAM[28]: 16 bks, busW=16 BL=2 CL=12, tRRD=3 tCCD=1, tRCD=12 tRAS=28 tRP=12 tRC=40
n_cmd=1268720 n_nop=1267976 n_act=44 n_pre=32 n_ref_event=0 n_req=668 n_rd=668 n_rd_L2_A=0 n_write=0 n_wr_bk=0 bw_util=0.0005265
n_activity=4297 dram_eff=0.1555
bk0: 116a 1268310i bk1: 100a 1268393i bk2: 44a 1268652i bk3: 52a 1268670i bk4: 32a 1268685i bk5: 40a 1268583i bk6: 0a 1268720i bk7: 0a 1268720i bk8: 0a 1268720i bk9: 4a 1268705i bk10: 0a 1268720i bk11: 8a 1268702i bk12: 68a 1268611i bk13: 72a 1268633i bk14: 64a 1268662i bk15: 68a 1268633i 

------------------------------------------------------------------------

Row_Buffer_Locality = 0.934132
Row_Buffer_Locality_read = 0.934132
Row_Buffer_Locality_write = -nan
Bank_Level_Parallism = 1.017708
Bank_Level_Parallism_Col = 1.014215
Bank_Level_Parallism_Ready = 1.001497
write_to_read_ratio_blp_rw_average = 0.000000
GrpLevelPara = 1.014215 

BW Util details:
bwutil = 0.000527 
total_CMD = 1268720 
util_bw = 668 
Wasted_Col = 993 
Wasted_Row = 372 
Idle = 1266687 

BW Util Bottlenecks: 
RCDc_limit = 523 
RCDWRc_limit = 0 
WTRc_limit = 0 
RTWc_limit = 0 
CCDLc_limit = 480 
rwq = 0 
CCDLc_limit_alone = 480 
WTRc_limit_alone = 0 
RTWc_limit_alone = 0 

Commands details: 
total_CMD = 1268720 
n_nop = 1267976 
Read = 668 
Write = 0 
L2_Alloc = 0 
L2_WB = 0 
n_act = 44 
n_pre = 32 
n_ref = 0 
n_req = 668 
total_req = 668 

Dual Bus Interface Util: 
issued_total_row = 76 
issued_total_col = 668 
Row_Bus_Util =  0.000060 
CoL_Bus_Util = 0.000527 
Either_Row_CoL_Bus_Util = 0.000586 
Issued_on_Two_Bus_Simul_Util = 0.000000 
issued_two_Eff = 0.000000 
queue_avg = 0.002647 


dram_util_bins: 0 0 0 0 0 0 0 0 0 0
dram_eff_bins: 0 0 0 0 0 0 0 0 0 0
mrqq: max=7 avg=0.00264676
Memory Partition 29: 
Cache L2_bank_058:

Cache L2_bank_059:

In Dram Latency Queue (total = 0): 
DRAM[29]: 16 bks, busW=16 BL=2 CL=12, tRRD=3 tCCD=1, tRCD=12 tRAS=28 tRP=12 tRC=40
n_cmd=1268720 n_nop=1267949 n_act=46 n_pre=33 n_ref_event=0 n_req=692 n_rd=692 n_rd_L2_A=0 n_write=0 n_wr_bk=0 bw_util=0.0005454
n_activity=4547 dram_eff=0.1522
bk0: 108a 1268361i bk1: 112a 1268267i bk2: 44a 1268652i bk3: 52a 1268671i bk4: 36a 1268682i bk5: 36a 1268681i bk6: 0a 1268720i bk7: 0a 1268720i bk8: 0a 1268720i bk9: 12a 1268699i bk10: 4a 1268705i bk11: 12a 1268699i bk12: 68a 1268610i bk13: 68a 1268612i bk14: 68a 1268634i bk15: 72a 1268635i 

------------------------------------------------------------------------

Row_Buffer_Locality = 0.933526
Row_Buffer_Locality_read = 0.933526
Row_Buffer_Locality_write = -nan
Bank_Level_Parallism = 1.003745
Bank_Level_Parallism_Col = 1.004723
Bank_Level_Parallism_Ready = 1.001445
write_to_read_ratio_blp_rw_average = 0.000000
GrpLevelPara = 1.004723 

BW Util details:
bwutil = 0.000545 
total_CMD = 1268720 
util_bw = 692 
Wasted_Col = 1048 
Wasted_Row = 396 
Idle = 1266584 

BW Util Bottlenecks: 
RCDc_limit = 552 
RCDWRc_limit = 0 
WTRc_limit = 0 
RTWc_limit = 0 
CCDLc_limit = 496 
rwq = 0 
CCDLc_limit_alone = 496 
WTRc_limit_alone = 0 
RTWc_limit_alone = 0 

Commands details: 
total_CMD = 1268720 
n_nop = 1267949 
Read = 692 
Write = 0 
L2_Alloc = 0 
L2_WB = 0 
n_act = 46 
n_pre = 33 
n_ref = 0 
n_req = 692 
total_req = 692 

Dual Bus Interface Util: 
issued_total_row = 79 
issued_total_col = 692 
Row_Bus_Util =  0.000062 
CoL_Bus_Util = 0.000545 
Either_Row_CoL_Bus_Util = 0.000608 
Issued_on_Two_Bus_Simul_Util = 0.000000 
issued_two_Eff = 0.000000 
queue_avg = 0.002688 


dram_util_bins: 0 0 0 0 0 0 0 0 0 0
dram_eff_bins: 0 0 0 0 0 0 0 0 0 0
mrqq: max=7 avg=0.00268775
Memory Partition 30: 
Cache L2_bank_060:

Cache L2_bank_061:

In Dram Latency Queue (total = 0): 
DRAM[30]: 16 bks, busW=16 BL=2 CL=12, tRRD=3 tCCD=1, tRCD=12 tRAS=28 tRP=12 tRC=40
n_cmd=1268720 n_nop=1267989 n_act=40 n_pre=28 n_ref_event=0 n_req=664 n_rd=664 n_rd_L2_A=0 n_write=0 n_wr_bk=0 bw_util=0.0005234
n_activity=4205 dram_eff=0.1579
bk0: 108a 1268339i bk1: 104a 1268389i bk2: 44a 1268628i bk3: 44a 1268680i bk4: 32a 1268688i bk5: 44a 1268627i bk6: 0a 1268720i bk7: 0a 1268720i bk8: 0a 1268720i bk9: 8a 1268702i bk10: 0a 1268720i bk11: 8a 1268703i bk12: 64a 1268665i bk13: 72a 1268635i bk14: 64a 1268663i bk15: 72a 1268630i 

------------------------------------------------------------------------

Row_Buffer_Locality = 0.939759
Row_Buffer_Locality_read = 0.939759
Row_Buffer_Locality_write = -nan
Bank_Level_Parallism = 1.004109
Bank_Level_Parallism_Col = 1.001268
Bank_Level_Parallism_Ready = 1.003012
write_to_read_ratio_blp_rw_average = 0.000000
GrpLevelPara = 1.000634 

BW Util details:
bwutil = 0.000523 
total_CMD = 1268720 
util_bw = 664 
Wasted_Col = 952 
Wasted_Row = 331 
Idle = 1266773 

BW Util Bottlenecks: 
RCDc_limit = 479 
RCDWRc_limit = 0 
WTRc_limit = 0 
RTWc_limit = 0 
CCDLc_limit = 473 
rwq = 0 
CCDLc_limit_alone = 473 
WTRc_limit_alone = 0 
RTWc_limit_alone = 0 

Commands details: 
total_CMD = 1268720 
n_nop = 1267989 
Read = 664 
Write = 0 
L2_Alloc = 0 
L2_WB = 0 
n_act = 40 
n_pre = 28 
n_ref = 0 
n_req = 664 
total_req = 664 

Dual Bus Interface Util: 
issued_total_row = 68 
issued_total_col = 664 
Row_Bus_Util =  0.000054 
CoL_Bus_Util = 0.000523 
Either_Row_CoL_Bus_Util = 0.000576 
Issued_on_Two_Bus_Simul_Util = 0.000001 
issued_two_Eff = 0.001368 
queue_avg = 0.002251 


dram_util_bins: 0 0 0 0 0 0 0 0 0 0
dram_eff_bins: 0 0 0 0 0 0 0 0 0 0
mrqq: max=4 avg=0.00225109
Memory Partition 31: 
Cache L2_bank_062:

Cache L2_bank_063:

In Dram Latency Queue (total = 0): 
DRAM[31]: 16 bks, busW=16 BL=2 CL=12, tRRD=3 tCCD=1, tRCD=12 tRAS=28 tRP=12 tRC=40
n_cmd=1268720 n_nop=1267980 n_act=37 n_pre=24 n_ref_event=0 n_req=680 n_rd=680 n_rd_L2_A=0 n_write=0 n_wr_bk=0 bw_util=0.000536
n_activity=4151 dram_eff=0.1638
bk0: 104a 1268421i bk1: 104a 1268393i bk2: 40a 1268679i bk3: 56a 1268666i bk4: 40a 1268682i bk5: 44a 1268628i bk6: 4a 1268705i bk7: 0a 1268720i bk8: 0a 1268720i bk9: 8a 1268702i bk10: 0a 1268720i bk11: 8a 1268702i bk12: 68a 1268635i bk13: 64a 1268636i bk14: 64a 1268665i bk15: 76a 1268628i 

------------------------------------------------------------------------

Row_Buffer_Locality = 0.945588
Row_Buffer_Locality_read = 0.945588
Row_Buffer_Locality_write = -nan
Bank_Level_Parallism = 1.019334
Bank_Level_Parallism_Col = 1.022092
Bank_Level_Parallism_Ready = 1.010294
write_to_read_ratio_blp_rw_average = 0.000000
GrpLevelPara = 1.022092 

BW Util details:
bwutil = 0.000536 
total_CMD = 1268720 
util_bw = 680 
Wasted_Col = 894 
Wasted_Row = 288 
Idle = 1266858 

BW Util Bottlenecks: 
RCDc_limit = 436 
RCDWRc_limit = 0 
WTRc_limit = 0 
RTWc_limit = 0 
CCDLc_limit = 466 
rwq = 0 
CCDLc_limit_alone = 466 
WTRc_limit_alone = 0 
RTWc_limit_alone = 0 

Commands details: 
total_CMD = 1268720 
n_nop = 1267980 
Read = 680 
Write = 0 
L2_Alloc = 0 
L2_WB = 0 
n_act = 37 
n_pre = 24 
n_ref = 0 
n_req = 680 
total_req = 680 

Dual Bus Interface Util: 
issued_total_row = 61 
issued_total_col = 680 
Row_Bus_Util =  0.000048 
CoL_Bus_Util = 0.000536 
Either_Row_CoL_Bus_Util = 0.000583 
Issued_on_Two_Bus_Simul_Util = 0.000001 
issued_two_Eff = 0.001351 
queue_avg = 0.002125 


dram_util_bins: 0 0 0 0 0 0 0 0 0 0
dram_eff_bins: 0 0 0 0 0 0 0 0 0 0
mrqq: max=7 avg=0.00212498

========= L2 cache stats =========
L2_cache_bank[0]: Access = 4660, Miss = 384, Miss_rate = 0.082, Pending_hits = 0, Reservation_fails = 0
L2_cache_bank[1]: Access = 5040, Miss = 324, Miss_rate = 0.064, Pending_hits = 0, Reservation_fails = 0
L2_cache_bank[2]: Access = 10041, Miss = 2776, Miss_rate = 0.276, Pending_hits = 0, Reservation_fails = 0
L2_cache_bank[3]: Access = 5020, Miss = 304, Miss_rate = 0.061, Pending_hits = 0, Reservation_fails = 0
L2_cache_bank[4]: Access = 9504, Miss = 4638, Miss_rate = 0.488, Pending_hits = 0, Reservation_fails = 0
L2_cache_bank[5]: Access = 5217, Miss = 320, Miss_rate = 0.061, Pending_hits = 0, Reservation_fails = 0
L2_cache_bank[6]: Access = 8548, Miss = 4318, Miss_rate = 0.505, Pending_hits = 0, Reservation_fails = 0
L2_cache_bank[7]: Access = 5228, Miss = 332, Miss_rate = 0.064, Pending_hits = 0, Reservation_fails = 0
L2_cache_bank[8]: Access = 7985, Miss = 3534, Miss_rate = 0.443, Pending_hits = 0, Reservation_fails = 0
L2_cache_bank[9]: Access = 4867, Miss = 328, Miss_rate = 0.067, Pending_hits = 0, Reservation_fails = 0
L2_cache_bank[10]: Access = 6499, Miss = 2183, Miss_rate = 0.336, Pending_hits = 0, Reservation_fails = 0
L2_cache_bank[11]: Access = 5003, Miss = 316, Miss_rate = 0.063, Pending_hits = 0, Reservation_fails = 0
L2_cache_bank[12]: Access = 5372, Miss = 1013, Miss_rate = 0.189, Pending_hits = 0, Reservation_fails = 0
L2_cache_bank[13]: Access = 4894, Miss = 328, Miss_rate = 0.067, Pending_hits = 0, Reservation_fails = 0
L2_cache_bank[14]: Access = 5452, Miss = 711, Miss_rate = 0.130, Pending_hits = 0, Reservation_fails = 0
L2_cache_bank[15]: Access = 4741, Miss = 340, Miss_rate = 0.072, Pending_hits = 0, Reservation_fails = 0
L2_cache_bank[16]: Access = 5379, Miss = 562, Miss_rate = 0.104, Pending_hits = 0, Reservation_fails = 0
L2_cache_bank[17]: Access = 4729, Miss = 336, Miss_rate = 0.071, Pending_hits = 0, Reservation_fails = 0
L2_cache_bank[18]: Access = 5067, Miss = 375, Miss_rate = 0.074, Pending_hits = 0, Reservation_fails = 0
L2_cache_bank[19]: Access = 4670, Miss = 336, Miss_rate = 0.072, Pending_hits = 0, Reservation_fails = 0
L2_cache_bank[20]: Access = 4885, Miss = 336, Miss_rate = 0.069, Pending_hits = 0, Reservation_fails = 0
L2_cache_bank[21]: Access = 4752, Miss = 332, Miss_rate = 0.070, Pending_hits = 0, Reservation_fails = 0
L2_cache_bank[22]: Access = 4818, Miss = 352, Miss_rate = 0.073, Pending_hits = 0, Reservation_fails = 0
L2_cache_bank[23]: Access = 4694, Miss = 320, Miss_rate = 0.068, Pending_hits = 0, Reservation_fails = 0
L2_cache_bank[24]: Access = 5230, Miss = 352, Miss_rate = 0.067, Pending_hits = 0, Reservation_fails = 0
L2_cache_bank[25]: Access = 5137, Miss = 364, Miss_rate = 0.071, Pending_hits = 0, Reservation_fails = 0
L2_cache_bank[26]: Access = 5243, Miss = 348, Miss_rate = 0.066, Pending_hits = 0, Reservation_fails = 0
L2_cache_bank[27]: Access = 5156, Miss = 340, Miss_rate = 0.066, Pending_hits = 0, Reservation_fails = 0
L2_cache_bank[28]: Access = 4991, Miss = 336, Miss_rate = 0.067, Pending_hits = 0, Reservation_fails = 0
L2_cache_bank[29]: Access = 4652, Miss = 340, Miss_rate = 0.073, Pending_hits = 0, Reservation_fails = 0
L2_cache_bank[30]: Access = 4872, Miss = 336, Miss_rate = 0.069, Pending_hits = 0, Reservation_fails = 0
L2_cache_bank[31]: Access = 4627, Miss = 352, Miss_rate = 0.076, Pending_hits = 0, Reservation_fails = 0
L2_cache_bank[32]: Access = 5069, Miss = 356, Miss_rate = 0.070, Pending_hits = 0, Reservation_fails = 0
L2_cache_bank[33]: Access = 4512, Miss = 320, Miss_rate = 0.071, Pending_hits = 0, Reservation_fails = 0
L2_cache_bank[34]: Access = 5256, Miss = 332, Miss_rate = 0.063, Pending_hits = 0, Reservation_fails = 0
L2_cache_bank[35]: Access = 4628, Miss = 328, Miss_rate = 0.071, Pending_hits = 0, Reservation_fails = 0
L2_cache_bank[36]: Access = 5247, Miss = 320, Miss_rate = 0.061, Pending_hits = 0, Reservation_fails = 0
L2_cache_bank[37]: Access = 4630, Miss = 340, Miss_rate = 0.073, Pending_hits = 0, Reservation_fails = 0
L2_cache_bank[38]: Access = 5151, Miss = 336, Miss_rate = 0.065, Pending_hits = 0, Reservation_fails = 0
L2_cache_bank[39]: Access = 4577, Miss = 312, Miss_rate = 0.068, Pending_hits = 0, Reservation_fails = 0
L2_cache_bank[40]: Access = 5083, Miss = 368, Miss_rate = 0.072, Pending_hits = 0, Reservation_fails = 0
L2_cache_bank[41]: Access = 4630, Miss = 332, Miss_rate = 0.072, Pending_hits = 0, Reservation_fails = 0
L2_cache_bank[42]: Access = 5032, Miss = 344, Miss_rate = 0.068, Pending_hits = 0, Reservation_fails = 0
L2_cache_bank[43]: Access = 4830, Miss = 345, Miss_rate = 0.071, Pending_hits = 0, Reservation_fails = 0
L2_cache_bank[44]: Access = 5216, Miss = 344, Miss_rate = 0.066, Pending_hits = 0, Reservation_fails = 0
L2_cache_bank[45]: Access = 4797, Miss = 344, Miss_rate = 0.072, Pending_hits = 0, Reservation_fails = 0
L2_cache_bank[46]: Access = 5142, Miss = 344, Miss_rate = 0.067, Pending_hits = 0, Reservation_fails = 0
L2_cache_bank[47]: Access = 4734, Miss = 332, Miss_rate = 0.070, Pending_hits = 0, Reservation_fails = 0
L2_cache_bank[48]: Access = 5057, Miss = 352, Miss_rate = 0.070, Pending_hits = 0, Reservation_fails = 0
L2_cache_bank[49]: Access = 4647, Miss = 348, Miss_rate = 0.075, Pending_hits = 0, Reservation_fails = 0
L2_cache_bank[50]: Access = 5078, Miss = 365, Miss_rate = 0.072, Pending_hits = 0, Reservation_fails = 0
L2_cache_bank[51]: Access = 4734, Miss = 364, Miss_rate = 0.077, Pending_hits = 0, Reservation_fails = 0
L2_cache_bank[52]: Access = 5185, Miss = 380, Miss_rate = 0.073, Pending_hits = 0, Reservation_fails = 0
L2_cache_bank[53]: Access = 4549, Miss = 332, Miss_rate = 0.073, Pending_hits = 0, Reservation_fails = 0
L2_cache_bank[54]: Access = 5432, Miss = 380, Miss_rate = 0.070, Pending_hits = 0, Reservation_fails = 0
L2_cache_bank[55]: Access = 4674, Miss = 344, Miss_rate = 0.074, Pending_hits = 0, Reservation_fails = 0
L2_cache_bank[56]: Access = 5442, Miss = 328, Miss_rate = 0.060, Pending_hits = 0, Reservation_fails = 0
L2_cache_bank[57]: Access = 4634, Miss = 344, Miss_rate = 0.074, Pending_hits = 0, Reservation_fails = 0
L2_cache_bank[58]: Access = 5187, Miss = 328, Miss_rate = 0.063, Pending_hits = 0, Reservation_fails = 0
L2_cache_bank[59]: Access = 4706, Miss = 364, Miss_rate = 0.077, Pending_hits = 0, Reservation_fails = 0
L2_cache_bank[60]: Access = 5425, Miss = 312, Miss_rate = 0.058, Pending_hits = 0, Reservation_fails = 0
L2_cache_bank[61]: Access = 4741, Miss = 352, Miss_rate = 0.074, Pending_hits = 0, Reservation_fails = 0
L2_cache_bank[62]: Access = 5022, Miss = 320, Miss_rate = 0.064, Pending_hits = 0, Reservation_fails = 0
L2_cache_bank[63]: Access = 4546, Miss = 360, Miss_rate = 0.079, Pending_hits = 0, Reservation_fails = 0
L2_total_cache_accesses = 334566
L2_total_cache_misses = 38836
L2_total_cache_miss_rate = 0.1161
L2_total_cache_pending_hits = 0
L2_total_cache_reservation_fails = 0
L2_total_cache_breakdown:
	L2_cache_stats_breakdown[GLOBAL_ACC_R][HIT] = 208314
	L2_cache_stats_breakdown[GLOBAL_ACC_R][HIT_RESERVED] = 0
	L2_cache_stats_breakdown[GLOBAL_ACC_R][MISS] = 0
	L2_cache_stats_breakdown[GLOBAL_ACC_R][RESERVATION_FAIL] = 0
	L2_cache_stats_breakdown[GLOBAL_ACC_R][SECTOR_MISS] = 0
	L2_cache_stats_breakdown[LOCAL_ACC_R][HIT] = 0
	L2_cache_stats_breakdown[LOCAL_ACC_R][HIT_RESERVED] = 0
	L2_cache_stats_breakdown[LOCAL_ACC_R][MISS] = 0
	L2_cache_stats_breakdown[LOCAL_ACC_R][RESERVATION_FAIL] = 0
	L2_cache_stats_breakdown[LOCAL_ACC_R][SECTOR_MISS] = 0
	L2_cache_stats_breakdown[CONST_ACC_R][HIT] = 0
	L2_cache_stats_breakdown[CONST_ACC_R][HIT_RESERVED] = 0
	L2_cache_stats_breakdown[CONST_ACC_R][MISS] = 0
	L2_cache_stats_breakdown[CONST_ACC_R][RESERVATION_FAIL] = 0
	L2_cache_stats_breakdown[CONST_ACC_R][SECTOR_MISS] = 0
	L2_cache_stats_breakdown[TEXTURE_ACC_R][HIT] = 39243
	L2_cache_stats_breakdown[TEXTURE_ACC_R][HIT_RESERVED] = 0
	L2_cache_stats_breakdown[TEXTURE_ACC_R][MISS] = 5394
	L2_cache_stats_breakdown[TEXTURE_ACC_R][RESERVATION_FAIL] = 0
	L2_cache_stats_breakdown[TEXTURE_ACC_R][SECTOR_MISS] = 16183
	L2_cache_stats_breakdown[GLOBAL_ACC_W][HIT] = 48173
	L2_cache_stats_breakdown[GLOBAL_ACC_W][HIT_RESERVED] = 0
	L2_cache_stats_breakdown[GLOBAL_ACC_W][MISS] = 39
	L2_cache_stats_breakdown[GLOBAL_ACC_W][RESERVATION_FAIL] = 0
	L2_cache_stats_breakdown[GLOBAL_ACC_W][SECTOR_MISS] = 17220
	L2_cache_stats_breakdown[LOCAL_ACC_W][HIT] = 0
	L2_cache_stats_breakdown[LOCAL_ACC_W][HIT_RESERVED] = 0
	L2_cache_stats_breakdown[LOCAL_ACC_W][MISS] = 0
	L2_cache_stats_breakdown[LOCAL_ACC_W][RESERVATION_FAIL] = 0
	L2_cache_stats_breakdown[LOCAL_ACC_W][SECTOR_MISS] = 0
	L2_cache_stats_breakdown[L1_WRBK_ACC][HIT] = 0
	L2_cache_stats_breakdown[L1_WRBK_ACC][HIT_RESERVED] = 0
	L2_cache_stats_breakdown[L1_WRBK_ACC][MISS] = 0
	L2_cache_stats_breakdown[L1_WRBK_ACC][RESERVATION_FAIL] = 0
	L2_cache_stats_breakdown[L1_WRBK_ACC][SECTOR_MISS] = 0
	L2_cache_stats_breakdown[L2_WRBK_ACC][HIT] = 0
	L2_cache_stats_breakdown[L2_WRBK_ACC][HIT_RESERVED] = 0
	L2_cache_stats_breakdown[L2_WRBK_ACC][MISS] = 0
	L2_cache_stats_breakdown[L2_WRBK_ACC][RESERVATION_FAIL] = 0
	L2_cache_stats_breakdown[L2_WRBK_ACC][SECTOR_MISS] = 0
	L2_cache_stats_breakdown[INST_ACC_R][HIT] = 0
	L2_cache_stats_breakdown[INST_ACC_R][HIT_RESERVED] = 0
	L2_cache_stats_breakdown[INST_ACC_R][MISS] = 0
	L2_cache_stats_breakdown[INST_ACC_R][RESERVATION_FAIL] = 0
	L2_cache_stats_breakdown[INST_ACC_R][SECTOR_MISS] = 0
	L2_cache_stats_breakdown[L1_WR_ALLOC_R][HIT] = 0
	L2_cache_stats_breakdown[L1_WR_ALLOC_R][HIT_RESERVED] = 0
	L2_cache_stats_breakdown[L1_WR_ALLOC_R][MISS] = 0
	L2_cache_stats_breakdown[L1_WR_ALLOC_R][RESERVATION_FAIL] = 0
	L2_cache_stats_breakdown[L1_WR_ALLOC_R][SECTOR_MISS] = 0
	L2_cache_stats_breakdown[L2_WR_ALLOC_R][HIT] = 0
	L2_cache_stats_breakdown[L2_WR_ALLOC_R][HIT_RESERVED] = 0
	L2_cache_stats_breakdown[L2_WR_ALLOC_R][MISS] = 0
	L2_cache_stats_breakdown[L2_WR_ALLOC_R][RESERVATION_FAIL] = 0
	L2_cache_stats_breakdown[L2_WR_ALLOC_R][SECTOR_MISS] = 0
	L2_cache_stats_breakdown[GLOBAL_ACC_R][TOTAL_ACCESS] = 208314
	L2_cache_stats_breakdown[TEXTURE_ACC_R][TOTAL_ACCESS] = 60820
	L2_cache_stats_breakdown[GLOBAL_ACC_W][TOTAL_ACCESS] = 65432
L2_total_cache_reservation_fail_breakdown:
L2_cache_data_port_util = 0.003
L2_cache_fill_port_util = 0.000

icnt_total_pkts_mem_to_simt=334566
icnt_total_pkts_simt_to_mem=288951
LD_mem_lat_dist  0 0 0 0 0 0 0 0 0 0 0 0 0 0 0 0 0 0 0 0 0 0 0 0 0 0 0
ST_mem_lat_dist  0 0 0 0 0 0 0 0 0 0 0 0 0 0 0 0 0 0 0 0 0 0 0 0 0 0 0
----------------------------Interconnect-DETAILS--------------------------------
Req_Network_injected_packets_num = 288951
Req_Network_cycles = 1689637
Req_Network_injected_packets_per_cycle =       0.1710 
Req_Network_conflicts_per_cycle =       0.0000
Req_Network_conflicts_per_cycle_util =       0.0000
Req_Bank_Level_Parallism =       1.0086
Req_Network_in_buffer_full_per_cycle =       0.0000
Req_Network_in_buffer_avg_util =       0.0000
Req_Network_out_buffer_full_per_cycle =       0.0000
Req_Network_out_buffer_avg_util =       0.0027

Reply_Network_injected_packets_num = 334566
Reply_Network_cycles = 1689637
Reply_Network_injected_packets_per_cycle =        0.1980
Reply_Network_conflicts_per_cycle =        0.1686
Reply_Network_conflicts_per_cycle_util =       0.8516
Reply_Bank_Level_Parallism =       1.0000
Reply_Network_in_buffer_full_per_cycle =       0.0000
Reply_Network_in_buffer_avg_util =       0.0044
Reply_Network_out_buffer_full_per_cycle =       0.0000
Reply_Network_out_buffer_avg_util =       0.0037
----------------------------END-of-Interconnect-DETAILS-------------------------


gpgpu_simulation_time = 0 days, 0 hrs, 21 min, 31 sec (1291 sec)
gpgpu_simulation_rate = 6397 (inst/sec)
gpgpu_simulation_rate = 1308 (cycle/sec)
gpgpu_silicon_slowdown = 865443x
GPGPU-Sim: synchronize waiting for inactive GPU simulation
GPGPU-Sim API: Stream Manager State
GPGPU-Sim: detected inactive GPU simulation thread
GPGPU-Sim: *** exit detected ***
