

        *** GPGPU-Sim Simulator Version 4.0.0  [build gpgpu-sim_git-commit-ffe0a1a00e984ecce9bf36e17ab94c4de0de8108_modified_0.0] ***


GPGPU-Sim PTX: simulation mode 0 (can change with PTX_SIM_MODE_FUNC environment variable:
               1=functional simulation only, 0=detailed performance simulator)
GPGPU-Sim PTX: overriding embedded ptx with ptx file (PTX_SIM_USE_PTX_FILE is set)
GPGPU-Sim: Configuration options:

-save_embedded_ptx                      0 # saves ptx files embedded in binary as <n>.ptx
-keep                                   0 # keep intermediate files created by GPGPU-Sim when interfacing with external programs
-gpgpu_ptx_save_converted_ptxplus                    0 # Saved converted ptxplus to a file
-gpgpu_occupancy_sm_number                   70 # The SM number to pass to ptxas when getting register usage for computing GPU occupancy. This parameter is required in the config.
-ptx_opcode_latency_int      4,13,4,5,145,21 # Opcode latencies for integers <ADD,MAX,MUL,MAD,DIV,SHFL>Default 1,1,19,25,145,32
-ptx_opcode_latency_fp          4,13,4,5,39 # Opcode latencies for single precision floating points <ADD,MAX,MUL,MAD,DIV>Default 1,1,1,1,30
-ptx_opcode_latency_dp         8,19,8,8,330 # Opcode latencies for double precision floating points <ADD,MAX,MUL,MAD,DIV>Default 8,8,8,8,335
-ptx_opcode_latency_sfu                  100 # Opcode latencies for SFU instructionsDefault 8
-ptx_opcode_latency_tesnor                   64 # Opcode latencies for Tensor instructionsDefault 64
-ptx_opcode_initiation_int          2,2,2,2,8,4 # Opcode initiation intervals for integers <ADD,MAX,MUL,MAD,DIV,SHFL>Default 1,1,4,4,32,4
-ptx_opcode_initiation_fp            2,2,2,2,4 # Opcode initiation intervals for single precision floating points <ADD,MAX,MUL,MAD,DIV>Default 1,1,1,1,5
-ptx_opcode_initiation_dp          4,4,4,4,130 # Opcode initiation intervals for double precision floating points <ADD,MAX,MUL,MAD,DIV>Default 8,8,8,8,130
-ptx_opcode_initiation_sfu                    8 # Opcode initiation intervals for sfu instructionsDefault 8
-ptx_opcode_initiation_tensor                   64 # Opcode initiation intervals for tensor instructionsDefault 64
-cdp_latency         7200,8000,100,12000,1600 # CDP API latency <cudaStreamCreateWithFlags, cudaGetParameterBufferV2_init_perWarp, cudaGetParameterBufferV2_perKernel, cudaLaunchDeviceV2_init_perWarp, cudaLaunchDevicV2_perKernel>Default 7200,8000,100,12000,1600
-network_mode                           2 # Interconnection network mode
-inter_config_file                   mesh # Interconnection network config file
-icnt_in_buffer_limit                  512 # in_buffer_limit
-icnt_out_buffer_limit                  512 # out_buffer_limit
-icnt_subnets                           2 # subnets
-icnt_arbiter_algo                      1 # arbiter_algo
-icnt_verbose                           0 # inct_verbose
-icnt_grant_cycles                      1 # grant_cycles
-gpgpu_ptx_use_cuobjdump                    1 # Use cuobjdump to extract ptx and sass from binaries
-gpgpu_experimental_lib_support                    0 # Try to extract code from cuda libraries [Broken because of unknown cudaGetExportTable]
-checkpoint_option                      0 #  checkpointing flag (0 = no checkpoint)
-checkpoint_kernel                      1 #  checkpointing during execution of which kernel (1- 1st kernel)
-checkpoint_CTA                         0 #  checkpointing after # of CTA (< less than total CTA)
-resume_option                          0 #  resume flag (0 = no resume)
-resume_kernel                          0 #  Resume from which kernel (1= 1st kernel)
-resume_CTA                             0 #  resume from which CTA 
-checkpoint_CTA_t                       0 #  resume from which CTA 
-checkpoint_insn_Y                      0 #  resume from which CTA 
-gpgpu_ptx_convert_to_ptxplus                    0 # Convert SASS (native ISA) to ptxplus and run ptxplus
-gpgpu_ptx_force_max_capability                   70 # Force maximum compute capability
-gpgpu_ptx_inst_debug_to_file                    0 # Dump executed instructions' debug information to file
-gpgpu_ptx_inst_debug_file       inst_debug.txt # Executed instructions' debug output file
-gpgpu_ptx_inst_debug_thread_uid                    1 # Thread UID for executed instructions' debug output
-gpgpu_n_mem_for_l2wb_pcommit                   32 # number of memory modules (e.g. memory controllers) in gpu
-gpgpu_n_sub_partition_per_mchannel_for_l2wb_pcommit                    2 # number of memory subpartition in each memory module
-gpgpu_dl2_bsize_for_l2wb_pcommit                  128 # default 128 bytes
-gpgpu_simd_model                       1 # 1 = post-dominator
-gpgpu_shader_core_pipeline              2048:32 # shader core pipeline config, i.e., {<nthread>:<warpsize>}
-gpgpu_tex_cache:l1  N:4:128:256,L:R:m:N:L,T:512:8,128:2 # per-shader L1 texture cache  (READ-ONLY) config  {<nsets>:<bsize>:<assoc>,<rep>:<wr>:<alloc>:<wr_alloc>,<mshr>:<N>:<merge>,<mq>:<rf>}
-gpgpu_const_cache:l1 N:128:64:8,L:R:f:N:L,S:2:64,4 # per-shader L1 constant memory cache  (READ-ONLY) config  {<nsets>:<bsize>:<assoc>,<rep>:<wr>:<alloc>:<wr_alloc>,<mshr>:<N>:<merge>,<mq>} 
-gpgpu_cache:il1     N:64:128:16,L:R:f:N:L,S:2:48,4 # shader L1 instruction cache config  {<nsets>:<bsize>:<assoc>,<rep>:<wr>:<alloc>:<wr_alloc>,<mshr>:<N>:<merge>,<mq>} 
-gpgpu_cache:dl1     S:1:128:256,L:L:s:N:L,A:256:8,16:0,32 # per-shader L1 data cache config  {<nsets>:<bsize>:<assoc>,<rep>:<wr>:<alloc>:<wr_alloc>,<mshr>:<N>:<merge>,<mq> | none}
-gpgpu_l1_banks                         4 # The number of L1 cache banks
-gpgpu_l1_banks_byte_interleaving                   32 # l1 banks byte interleaving granularity
-gpgpu_l1_banks_hashing_function                    0 # l1 banks hashing function
-gpgpu_l1_latency                      20 # L1 Hit Latency
-gpgpu_smem_latency                    20 # smem Latency
-gpgpu_cache:dl1PrefL1                 none # per-shader L1 data cache config  {<nsets>:<bsize>:<assoc>,<rep>:<wr>:<alloc>:<wr_alloc>,<mshr>:<N>:<merge>,<mq> | none}
-gpgpu_cache:dl1PrefShared                 none # per-shader L1 data cache config  {<nsets>:<bsize>:<assoc>,<rep>:<wr>:<alloc>:<wr_alloc>,<mshr>:<N>:<merge>,<mq> | none}
-gpgpu_gmem_skip_L1D                    0 # global memory access skip L1D cache (implements -Xptxas -dlcm=cg, default=no skip)
-gpgpu_perfect_mem                      0 # enable perfect memory mode (no cache miss)
-n_regfile_gating_group                    4 # group of lanes that should be read/written together)
-gpgpu_clock_gated_reg_file                    0 # enable clock gated reg file for power calculations
-gpgpu_clock_gated_lanes                    0 # enable clock gated lanes for power calculations
-gpgpu_shader_registers                65536 # Number of registers per shader core. Limits number of concurrent CTAs. (default 8192)
-gpgpu_registers_per_block                65536 # Maximum number of registers per CTA. (default 8192)
-gpgpu_ignore_resources_limitation                    0 # gpgpu_ignore_resources_limitation (default 0)
-gpgpu_shader_cta                      32 # Maximum number of concurrent CTAs in shader (default 8)
-gpgpu_num_cta_barriers                   16 # Maximum number of named barriers per CTA (default 16)
-gpgpu_n_clusters                      80 # number of processing clusters
-gpgpu_n_cores_per_cluster                    1 # number of simd cores per cluster
-gpgpu_n_cluster_ejection_buffer_size                   32 # number of packets in ejection buffer
-gpgpu_n_ldst_response_buffer_size                    2 # number of response packets in ld/st unit ejection buffer
-gpgpu_shmem_per_block                65536 # Size of shared memory per thread block or CTA (default 48kB)
-gpgpu_shmem_size                   98304 # Size of shared memory per shader core (default 16kB)
-gpgpu_adaptive_cache_config            536870913 # adaptive_cache_config
-gpgpu_shmem_sizeDefault                98304 # Size of shared memory per shader core (default 16kB)
-gpgpu_shmem_size_PrefL1                16384 # Size of shared memory per shader core (default 16kB)
-gpgpu_shmem_size_PrefShared                16384 # Size of shared memory per shader core (default 16kB)
-gpgpu_shmem_num_banks                   32 # Number of banks in the shared memory in each shader core (default 16)
-gpgpu_shmem_limited_broadcast                    0 # Limit shared memory to do one broadcast per cycle (default on)
-gpgpu_shmem_warp_parts                    1 # Number of portions a warp is divided into for shared memory bank conflict check 
-gpgpu_mem_unit_ports                    1 # The number of memory transactions allowed per core cycle
-gpgpu_shmem_warp_parts                    1 # Number of portions a warp is divided into for shared memory bank conflict check 
-gpgpu_warpdistro_shader                   -1 # Specify which shader core to collect the warp size distribution from
-gpgpu_warp_issue_shader                    0 # Specify which shader core to collect the warp issue distribution from
-gpgpu_local_mem_map                    1 # Mapping from local memory space address to simulated GPU physical address space (default = enabled)
-gpgpu_num_reg_banks                   16 # Number of register banks (default = 8)
-gpgpu_reg_bank_use_warp_id                    0 # Use warp ID in mapping registers to banks (default = off)
-gpgpu_sub_core_model                    1 # Sub Core Volta/Pascal model (default = off)
-gpgpu_enable_specialized_operand_collector                    0 # enable_specialized_operand_collector
-gpgpu_operand_collector_num_units_sp                    4 # number of collector units (default = 4)
-gpgpu_operand_collector_num_units_dp                    0 # number of collector units (default = 0)
-gpgpu_operand_collector_num_units_sfu                    4 # number of collector units (default = 4)
-gpgpu_operand_collector_num_units_int                    0 # number of collector units (default = 0)
-gpgpu_operand_collector_num_units_tensor_core                    4 # number of collector units (default = 4)
-gpgpu_operand_collector_num_units_mem                    2 # number of collector units (default = 2)
-gpgpu_operand_collector_num_units_gen                    8 # number of collector units (default = 0)
-gpgpu_operand_collector_num_in_ports_sp                    1 # number of collector unit in ports (default = 1)
-gpgpu_operand_collector_num_in_ports_dp                    0 # number of collector unit in ports (default = 0)
-gpgpu_operand_collector_num_in_ports_sfu                    1 # number of collector unit in ports (default = 1)
-gpgpu_operand_collector_num_in_ports_int                    0 # number of collector unit in ports (default = 0)
-gpgpu_operand_collector_num_in_ports_tensor_core                    1 # number of collector unit in ports (default = 1)
-gpgpu_operand_collector_num_in_ports_mem                    1 # number of collector unit in ports (default = 1)
-gpgpu_operand_collector_num_in_ports_gen                    8 # number of collector unit in ports (default = 0)
-gpgpu_operand_collector_num_out_ports_sp                    1 # number of collector unit in ports (default = 1)
-gpgpu_operand_collector_num_out_ports_dp                    0 # number of collector unit in ports (default = 0)
-gpgpu_operand_collector_num_out_ports_sfu                    1 # number of collector unit in ports (default = 1)
-gpgpu_operand_collector_num_out_ports_int                    0 # number of collector unit in ports (default = 0)
-gpgpu_operand_collector_num_out_ports_tensor_core                    1 # number of collector unit in ports (default = 1)
-gpgpu_operand_collector_num_out_ports_mem                    1 # number of collector unit in ports (default = 1)
-gpgpu_operand_collector_num_out_ports_gen                    8 # number of collector unit in ports (default = 0)
-gpgpu_coalesce_arch                   60 # Coalescing arch (GT200 = 13, Fermi = 20)
-gpgpu_num_sched_per_core                    4 # Number of warp schedulers per core
-gpgpu_max_insn_issue_per_warp                    1 # Max number of instructions that can be issued per warp in one cycle by scheduler (either 1 or 2)
-gpgpu_dual_issue_diff_exec_units                    1 # should dual issue use two different execution unit resources (Default = 1)
-gpgpu_simt_core_sim_order                    1 # Select the simulation order of cores in a cluster (0=Fix, 1=Round-Robin)
-gpgpu_pipeline_widths 4,4,4,4,4,4,4,4,4,4,8,4,4 # Pipeline widths ID_OC_SP,ID_OC_DP,ID_OC_INT,ID_OC_SFU,ID_OC_MEM,OC_EX_SP,OC_EX_DP,OC_EX_INT,OC_EX_SFU,OC_EX_MEM,EX_WB,ID_OC_TENSOR_CORE,OC_EX_TENSOR_CORE
-gpgpu_tensor_core_avail                    1 # Tensor Core Available (default=0)
-gpgpu_num_sp_units                     4 # Number of SP units (default=1)
-gpgpu_num_dp_units                     4 # Number of DP units (default=0)
-gpgpu_num_int_units                    4 # Number of INT units (default=0)
-gpgpu_num_sfu_units                    4 # Number of SF units (default=1)
-gpgpu_num_tensor_core_units                    4 # Number of tensor_core units (default=1)
-gpgpu_num_mem_units                    1 # Number if ldst units (default=1) WARNING: not hooked up to anything
-gpgpu_scheduler                      gto # Scheduler configuration: < lrr | gto | two_level_active > If two_level_active:<num_active_warps>:<inner_prioritization>:<outer_prioritization>For complete list of prioritization values see shader.h enum scheduler_prioritization_typeDefault: gto
-gpgpu_concurrent_kernel_sm                    0 # Support concurrent kernels on a SM (default = disabled)
-gpgpu_perfect_inst_const_cache                    1 # perfect inst and const cache mode, so all inst and const hits in the cache(default = disabled)
-gpgpu_inst_fetch_throughput                    4 # the number of fetched intruction per warp each cycle
-gpgpu_reg_file_port_throughput                    2 # the number ports of the register file
-specialized_unit_1         0,4,4,4,4,BRA # specialized unit config {<enabled>,<num_units>:<latency>:<initiation>,<ID_OC_SPEC>:<OC_EX_SPEC>,<NAME>}
-specialized_unit_2         0,4,4,4,4,BRA # specialized unit config {<enabled>,<num_units>:<latency>:<initiation>,<ID_OC_SPEC>:<OC_EX_SPEC>,<NAME>}
-specialized_unit_3         0,4,4,4,4,BRA # specialized unit config {<enabled>,<num_units>:<latency>:<initiation>,<ID_OC_SPEC>:<OC_EX_SPEC>,<NAME>}
-specialized_unit_4         0,4,4,4,4,BRA # specialized unit config {<enabled>,<num_units>:<latency>:<initiation>,<ID_OC_SPEC>:<OC_EX_SPEC>,<NAME>}
-specialized_unit_5         0,4,4,4,4,BRA # specialized unit config {<enabled>,<num_units>:<latency>:<initiation>,<ID_OC_SPEC>:<OC_EX_SPEC>,<NAME>}
-specialized_unit_6         0,4,4,4,4,BRA # specialized unit config {<enabled>,<num_units>:<latency>:<initiation>,<ID_OC_SPEC>:<OC_EX_SPEC>,<NAME>}
-specialized_unit_7         0,4,4,4,4,BRA # specialized unit config {<enabled>,<num_units>:<latency>:<initiation>,<ID_OC_SPEC>:<OC_EX_SPEC>,<NAME>}
-specialized_unit_8         0,4,4,4,4,BRA # specialized unit config {<enabled>,<num_units>:<latency>:<initiation>,<ID_OC_SPEC>:<OC_EX_SPEC>,<NAME>}
-gpgpu_perf_sim_memcpy                    1 # Fill the L2 cache on memcpy
-gpgpu_simple_dram_model                    0 # simple_dram_model with fixed latency and BW
-gpgpu_dram_scheduler                    1 # 0 = fifo, 1 = FR-FCFS (defaul)
-gpgpu_dram_partition_queues          64:64:64:64 # i2$:$2d:d2$:$2i
-l2_ideal                               0 # Use a ideal L2 cache that always hit
-gpgpu_cache:dl2     S:32:128:24,L:B:m:L:P,A:192:4,32:0,32 # unified banked L2 data cache config  {<nsets>:<bsize>:<assoc>,<rep>:<wr>:<alloc>:<wr_alloc>,<mshr>:<N>:<merge>,<mq>}
-gpgpu_cache:dl2_texture_only                    0 # L2 cache used for texture only
-gpgpu_n_mem                           32 # number of memory modules (e.g. memory controllers) in gpu
-gpgpu_n_sub_partition_per_mchannel                    2 # number of memory subpartition in each memory module
-gpgpu_n_mem_per_ctrlr                    1 # number of memory chips per memory controller
-gpgpu_memlatency_stat                   14 # track and display latency statistics 0x2 enables MC, 0x4 enables queue logs
-gpgpu_frfcfs_dram_sched_queue_size                   64 # 0 = unlimited (default); # entries per chip
-gpgpu_dram_return_queue_size                  192 # 0 = unlimited (default); # entries per chip
-gpgpu_dram_buswidth                   16 # default = 4 bytes (8 bytes per cycle at DDR)
-gpgpu_dram_burst_length                    2 # Burst length of each DRAM request (default = 4 data bus cycle)
-dram_data_command_freq_ratio                    2 # Frequency ratio between DRAM data bus and command bus (default = 2 times, i.e. DDR)
-gpgpu_dram_timing_opt nbk=16:CCD=1:RRD=3:RCD=12:RAS=28:RP=12:RC=40: CL=12:WL=2:CDLR=3:WR=10:nbkgrp=4:CCDL=2:RTPL=3 # DRAM timing parameters = {nbk:tCCD:tRRD:tRCD:tRAS:tRP:tRC:CL:WL:tCDLR:tWR:nbkgrp:tCCDL:tRTPL}
-gpgpu_l2_rop_latency                  160 # ROP queue latency (default 85)
-dram_latency                         200 # DRAM latency (default 30)
-dram_write_latency                   600 # DRAM write latency (default 100)
-dram_dual_bus_interface                    1 # dual_bus_interface (default = 0) 
-dram_bnk_indexing_policy                    0 # dram_bnk_indexing_policy (0 = normal indexing, 1 = Xoring with the higher bits) (Default = 0)
-dram_bnkgrp_indexing_policy                    1 # dram_bnkgrp_indexing_policy (0 = take higher bits, 1 = take lower bits) (Default = 0)
-dram_seperate_write_queue_enable                    0 # Seperate_Write_Queue_Enable
-dram_write_queue_size             32:28:16 # Write_Queue_Size
-dram_elimnate_rw_turnaround                    0 # elimnate_rw_turnaround i.e set tWTR and tRTW = 0
-icnt_flit_size                        40 # icnt_flit_size
-gpgpu_mem_addr_mapping dramid@8;00000000.00000000.00000000.00000000.0000RRRR.RRRRRRRR.RBBBCCCB.CCCSSSSS # mapping memory address to dram model {dramid@<start bit>;<memory address map>}
-gpgpu_mem_addr_test                    0 # run sweep test to check address mapping for aliased address
-gpgpu_mem_address_mask                    1 # 0 = old addressing mask, 1 = new addressing mask, 2 = new add. mask + flipped bank sel and chip sel bits
-gpgpu_memory_partition_indexing                    0 # 0 = no indexing, 1 = bitwise xoring, 2 = IPoly, 3 = custom indexing
-gpuwattch_xml_file         gpuwattch.xml # GPUWattch XML file
-power_simulation_enabled                    0 # Turn on power simulator (1=On, 0=Off)
-power_per_cycle_dump                    0 # Dump detailed power output each cycle
-power_trace_enabled                    0 # produce a file for the power trace (1=On, 0=Off)
-power_trace_zlevel                     6 # Compression level of the power trace output log (0=no comp, 9=highest)
-steady_power_levels_enabled                    0 # produce a file for the steady power levels (1=On, 0=Off)
-steady_state_definition                  8:4 # allowed deviation:number of samples
-gpgpu_max_cycle                        0 # terminates gpu simulation early (0 = no limit)
-gpgpu_max_insn                         0 # terminates gpu simulation early (0 = no limit)
-gpgpu_max_cta                          0 # terminates gpu simulation early (0 = no limit)
-gpgpu_max_completed_cta                    0 # terminates gpu simulation early (0 = no limit)
-gpgpu_runtime_stat                   500 # display runtime statistics such as dram utilization {<freq>:<flag>}
-liveness_message_freq                    1 # Minimum number of seconds between simulation liveness messages (0 = always print)
-gpgpu_compute_capability_major                    7 # Major compute capability version number
-gpgpu_compute_capability_minor                    0 # Minor compute capability version number
-gpgpu_flush_l1_cache                    1 # Flush L1 cache at the end of each kernel call
-gpgpu_flush_l2_cache                    0 # Flush L2 cache at the end of each kernel call
-gpgpu_deadlock_detect                    1 # Stop the simulation at deadlock (1=on (default), 0=off)
-gpgpu_ptx_instruction_classification                    0 # if enabled will classify ptx instruction types per kernel (Max 255 kernels now)
-gpgpu_ptx_sim_mode                     0 # Select between Performance (default) or Functional simulation (1)
-gpgpu_clock_domains 1132.0:1132.0:1132.0:850.0 # Clock Domain Frequencies in MhZ {<Core Clock>:<ICNT Clock>:<L2 Clock>:<DRAM Clock>}
-gpgpu_max_concurrent_kernel                    8 # maximum kernels that can run concurrently on GPU
-gpgpu_cflog_interval                    0 # Interval between each snapshot in control flow logger
-visualizer_enabled               95dc7ff718555555fad94070fd983343  /home/pli11/Videos/parboil_benchmark/parboil/benchmarks/histo/build/nvm_sk_default/histo
Extracting PTX file and ptxas options    1: histo.1.sm_70.ptx -arch=sm_70
Extracting PTX file and ptxas options    2: histo.2.sm_70.ptx -arch=sm_70
      0 # Turn on visualizer output (1=On, 0=Off)
-visualizer_outputfile                 NULL # Specifies the output log file for visualizer
-visualizer_zlevel                      6 # Compression level of the visualizer output log (0=no comp, 9=highest)
-gpgpu_stack_size_limit                 1024 # GPU thread stack size
-gpgpu_heap_size_limit              8388608 # GPU malloc heap size 
-gpgpu_runtime_sync_depth_limit                    2 # GPU device runtime synchronize depth
-gpgpu_runtime_pending_launch_count_limit                 2048 # GPU device runtime pending launch count
-trace_enabled                          0 # Turn on traces
-trace_components                    none # comma seperated list of traces to enable. Complete list found in trace_streams.tup. Default none
-trace_sampling_core                    0 # The core which is printed using CORE_DPRINTF. Default 0
-trace_sampling_memory_partition                   -1 # The memory partition which is printed using MEMPART_DPRINTF. Default -1 (i.e. all)
-enable_ptx_file_line_stats                    1 # Turn on PTX source line statistic profiling. (1 = On)
-ptx_line_stats_filename gpgpu_inst_stats.txt # Output file for PTX source line statistics.
-gpgpu_kernel_launch_latency                 5000 # Kernel launch latency in cycles. Default: 0
-gpgpu_cdp_enabled                      0 # Turn on CDP
-gpgpu_TB_launch_latency                    0 # thread block launch latency in cycles. Default: 0
DRAM Timing Options:
nbk                                    16 # number of banks
CCD                                     1 # column to column delay
RRD                                     3 # minimal delay between activation of rows in different banks
RCD                                    12 # row to column delay
RAS                                    28 # time needed to activate row
RP                                     12 # time needed to precharge (deactivate) row
RC                                     40 # row cycle time
CDLR                                    3 # switching from write to read (changes tWTR)
WR                                     10 # last data-in to row precharge
CL                                     12 # CAS latency
WL                                      2 # Write latency
nbkgrp                                  4 # number of bank groups
CCDL                                    2 # column to column delay between accesses to different bank groups
RTPL                                    3 # read to precharge delay between accesses to different bank groups
Total number of memory sub partition = 64
addr_dec_mask[CHIP]  = 0000000000001f00 	high:13 low:8
addr_dec_mask[BK]    = 00000000000e2000 	high:20 low:13
addr_dec_mask[ROW]   = 00000001fff00000 	high:33 low:20
addr_dec_mask[COL]   = 000000000001c0ff 	high:17 low:0
addr_dec_mask[BURST] = 000000000000001f 	high:5 low:0
sub_partition_id_mask = 0000000000002000
GPGPU-Sim uArch: clock freqs: 1132000000.000000:1132000000.000000:1132000000.000000:850000000.000000
GPGPU-Sim uArch: clock periods: 0.00000000088339222615:0.00000000088339222615:0.00000000088339222615:0.00000000117647058824
*** Initializing Memory Statistics ***
GPGPU-Sim uArch: performance model initialization complete.
self exe links to: /home/pli11/Videos/parboil_benchmark/parboil/benchmarks/histo/build/nvm_sk_default/histo
self exe links to: /home/pli11/Videos/parboil_benchmark/parboil/benchmarks/histo/build/nvm_sk_default/histo
10.1
GPGPU-Sim PTX: __cudaRegisterFatBinary, fat_cubin_handle = 1, filename=default
self exe links to: /home/pli11/Videos/parboil_benchmark/parboil/benchmarks/histo/build/nvm_sk_default/histo
Running md5sum using "md5sum /home/pli11/Videos/parboil_benchmark/parboil/benchmarks/histo/build/nvm_sk_default/histo "
self exe links to: /home/pli11/Videos/parboil_benchmark/parboil/benchmarks/histo/build/nvm_sk_default/histo
Extracting specific PTX file named histo.1.sm_70.ptx 
Extracting specific PTX file named histo.2.sm_70.ptx 
GPGPU-Sim PTX: __cudaRegisterFunction _Z15kernel_l2wb_pctv : hostFun 0x0x4059f7, fat_cubin_handle = 1
GPGPU-Sim PTX: Parsing histo.1.sm_70.ptx
GPGPU-Sim PTX: allocating shared region for "_ZZ20histo_prescan_kernelPjiS_E3Avg" from 0x0 to 0x800 (shared memory space)
GPGPU-Sim PTX: allocating shared region for "_ZZ20histo_prescan_kernelPjiS_E6StdDev" from 0x800 to 0x1000 (shared memory space)
GPGPU-Sim PTX: instruction assembly for function '_Z20histo_prescan_kernelPjiS_'...   done.
GPGPU-Sim PTX: allocating shared region for "_ZZ25histo_prescan_kernel_nvmbPjiS_E3Avg" from 0x0 to 0x800 (shared memory space)
GPGPU-Sim PTX: allocating shared region for "_ZZ25histo_prescan_kernel_nvmbPjiS_E6StdDev" from 0x800 to 0x1000 (shared memory space)
GPGPU-Sim PTX: instruction assembly for function '_Z25histo_prescan_kernel_nvmbPjiS_'...   done.
GPGPU-Sim PTX: allocating shared region for "_ZZ25histo_prescan_kernel_nvmoPjiS_E3Avg" from 0x0 to 0x800 (shared memory space)
GPGPU-Sim PTX: allocating shared region for "_ZZ25histo_prescan_kernel_nvmoPjiS_E6StdDev" from 0x800 to 0x1000 (shared memory space)
GPGPU-Sim PTX: instruction assembly for function '_Z25histo_prescan_kernel_nvmoPjiS_'...   done.
GPGPU-Sim PTX: allocating shared region for "_ZZ25histo_prescan_kernel_nvmuPjiS_E3Avg" from 0x0 to 0x800 (shared memory space)
GPGPU-Sim PTX: allocating shared region for "_ZZ25histo_prescan_kernel_nvmuPjiS_E6StdDev" from 0x800 to 0x1000 (shared memory space)
GPGPU-Sim PTX: instruction assembly for function '_Z25histo_prescan_kernel_nvmuPjiS_'...   done.
GPGPU-Sim PTX: instruction assembly for function '_Z26histo_intermediates_kernelP5uint2jjjP6uchar4'...   done.
GPGPU-Sim PTX: instruction assembly for function '_Z31histo_intermediates_kernel_nvmaP5uint2jjjPj'...   done.
GPGPU-Sim PTX: instruction assembly for function '_Z31histo_intermediates_kernel_nvmbP5uint2jjjPj'...   done.
GPGPU-Sim PTX: instruction assembly for function '_Z31histo_intermediates_kernel_nvmoP5uint2jjjPj'...   done.
GPGPU-Sim PTX: instruction assembly for function '_Z31histo_intermediates_kernel_nvmuP5uint2jjjPj'...   done.
GPGPU-Sim PTX: instruction assembly for function '_Z31histo_intermediates_kernel_nvmjP5uint2jjjPj'...   done.
GPGPU-Sim PTX: allocating shared region for "_ZZ17histo_main_kernelP6uchar4jjjjjPjS1_S1_E9sub_histo" from 0x0 to 0x2000 (shared memory space)
GPGPU-Sim PTX: instruction assembly for function '_Z17histo_main_kernelP6uchar4jjjjjPjS1_S1_'...   done.
GPGPU-Sim PTX: allocating shared region for "_ZZ24histo_main_kernel_strictP6uchar4jjjjjPjS1_S1_E9sub_histo" from 0x0 to 0x2000 (shared memory space)
GPGPU-Sim PTX: instruction assembly for function '_Z24histo_main_kernel_strictP6uchar4jjjjjPjS1_S1_'...   done.
GPGPU-Sim PTX: instruction assembly for function '_Z18histo_final_kerneljjjjPjS_S_S_'...   done.
GPGPU-Sim PTX: instruction assembly for function '_Z23histo_final_kernel_nvmajjjjPjS_S_S_'...   done.
GPGPU-Sim PTX: instruction assembly for function '_Z23histo_final_kernel_nvmbjjjjPjS_S_S_'...   done.
GPGPU-Sim PTX: instruction assembly for function '_Z23histo_final_kernel_nvmojjjjPjS_S_S_'...   done.
GPGPU-Sim PTX: instruction assembly for function '_Z23histo_final_kernel_nvmujjjjPjS_S_S_'...   done.
GPGPU-Sim PTX: instruction assembly for function '_Z11kernel_l2wbv'...   done.
GPGPU-Sim PTX: instruction assembly for function '_Z15kernel_l2wb_pctv'...   done.
GPGPU-Sim PTX: finished parsing EMBEDDED .ptx file histo.1.sm_70.ptx
GPGPU-Sim PTX: Parsing histo.2.sm_70.ptx
GPGPU-Sim PTX: finished parsing EMBEDDED .ptx file histo.2.sm_70.ptx
GPGPU-Sim PTX: loading globals with explicit initializers... 
GPGPU-Sim PTX: finished loading globals (0 bytes total).
GPGPU-Sim PTX: loading constants with explicit initializers...  done.
GPGPU-Sim PTX: Loading PTXInfo from histo.1.sm_70.ptx
GPGPU-Sim PTX: Kernel '_Z15kernel_l2wb_pctv' : regs=8, lmem=0, smem=0, cmem=352
GPGPU-Sim PTX: Kernel '_Z11kernel_l2wbv' : regs=8, lmem=0, smem=0, cmem=352
GPGPU-Sim PTX: Kernel '_Z23histo_final_kernel_nvmujjjjPjS_S_S_' : regs=18, lmem=0, smem=0, cmem=400
GPGPU-Sim PTX: Kernel '_Z23histo_final_kernel_nvmojjjjPjS_S_S_' : regs=18, lmem=0, smem=0, cmem=400
GPGPU-Sim PTX: Kernel '_Z23histo_final_kernel_nvmbjjjjPjS_S_S_' : regs=18, lmem=0, smem=0, cmem=400
GPGPU-Sim PTX: Kernel '_Z23histo_final_kernel_nvmajjjjPjS_S_S_' : regs=20, lmem=0, smem=0, cmem=400
GPGPU-Sim PTX: Kernel '_Z18histo_final_kerneljjjjPjS_S_S_' : regs=20, lmem=0, smem=0, cmem=400
GPGPU-Sim PTX: Kernel '_Z24histo_main_kernel_strictP6uchar4jjjjjPjS1_S1_' : regs=20, lmem=0, smem=8192, cmem=408
GPGPU-Sim PTX: Kernel '_Z17histo_main_kernelP6uchar4jjjjjPjS1_S1_' : regs=20, lmem=0, smem=8192, cmem=408
GPGPU-Sim PTX: Kernel '_Z31histo_intermediates_kernel_nvmjP5uint2jjjPj' : regs=14, lmem=0, smem=0, cmem=384
GPGPU-Sim PTX: Kernel '_Z31histo_intermediates_kernel_nvmuP5uint2jjjPj' : regs=14, lmem=0, smem=0, cmem=384
GPGPU-Sim PTX: Kernel '_Z31histo_intermediates_kernel_nvmoP5uint2jjjPj' : regs=16, lmem=0, smem=0, cmem=384
GPGPU-Sim PTX: Kernel '_Z31histo_intermediates_kernel_nvmbP5uint2jjjPj' : regs=16, lmem=0, smem=0, cmem=384
GPGPU-Sim PTX: Kernel '_Z31histo_intermediates_kernel_nvmaP5uint2jjjPj' : regs=24, lmem=0, smem=0, cmem=384
GPGPU-Sim PTX: Kernel '_Z26histo_intermediates_kernelP5uint2jjjP6uchar4' : regs=30, lmem=0, smem=0, cmem=384
GPGPU-Sim PTX: Kernel '_Z25histo_prescan_kernel_nvmuPjiS_' : regs=21, lmem=0, smem=4096, cmem=376
GPGPU-Sim PTX: Kernel '_Z25histo_prescan_kernel_nvmoPjiS_' : regs=21, lmem=0, smem=4096, cmem=376
GPGPU-Sim PTX: Kernel '_Z25histo_prescan_kernel_nvmbPjiS_' : regs=21, lmem=0, smem=4096, cmem=376
GPGPU-Sim PTX: Kernel '_Z20histo_prescan_kernelPjiS_' : regs=21, lmem=0, smem=4096, cmem=376
GPGPU-Sim PTX: Loading PTXInfo from histo.2.sm_70.ptx
GPGPU-Sim PTX: __cudaRegisterFunction _Z11kernel_l2wbv : hostFun 0x0x4058fd, fat_cubin_handle = 1
GPGPU-Sim PTX: __cudaRegisterFunction _Z23histo_final_kernel_nvmujjjjPjS_S_S_ : hostFun 0x0x4057c4, fat_cubin_handle = 1
GPGPU-Sim PTX: __cudaRegisterFunction _Z23histo_final_kernel_nvmojjjjPjS_S_S_ : hostFun 0x0x4055b7, fat_cubin_handle = 1
GPGPU-Sim PTX: __cudaRegisterFunction _Z23histo_final_kernel_nvmbjjjjPjS_S_S_ : hostFun 0x0x4053aa, fat_cubin_handle = 1
GPGPU-Sim PTX: __cudaRegisterFunction _Z23histo_final_kernel_nvmajjjjPjS_S_S_ : hostFun 0x0x40519d, fat_cubin_handle = 1
GPGPU-Sim PTX: __cudaRegisterFunction _Z18histo_final_kerneljjjjPjS_S_S_ : hostFun 0x0x404f90, fat_cubin_handle = 1
GPGPU-Sim PTX: __cudaRegisterFunction _Z24histo_main_kernel_strictP6uchar4jjjjjPjS1_S1_ : hostFun 0x0x404d77, fat_cubin_handle = 1
GPGPU-Sim PTX: __cudaRegisterFunction _Z17histo_main_kernelP6uchar4jjjjjPjS1_S1_ : hostFun 0x0x404b26, fat_cubin_handle = 1
GPGPU-Sim PTX: __cudaRegisterFunction _Z31histo_intermediates_kernel_nvmjP5uint2jjjPj : hostFun 0x0x4048f4, fat_cubin_handle = 1
GPGPU-Sim PTX: __cudaRegisterFunction _Z31histo_intermediates_kernel_nvmuP5uint2jjjPj : hostFun 0x0x404760, fat_cubin_handle = 1
GPGPU-Sim PTX: __cudaRegisterFunction _Z31histo_intermediates_kernel_nvmoP5uint2jjjPj : hostFun 0x0x4045cc, fat_cubin_handle = 1
GPGPU-Sim PTX: __cudaRegisterFunction _Z31histo_intermediates_kernel_nvmbP5uint2jjjPj : hostFun 0x0x404438, fat_cubin_handle = 1
GPGPU-Sim PTX: __cudaRegisterFunction _Z31histo_intermediates_kernel_nvmaP5uint2jjjPj : hostFun 0x0x4042a4, fat_cubin_handle = 1
GPGPU-Sim PTX: __cudaRegisterFunction _Z26histo_intermediates_kernelP5uint2jjjP6uchar4 : hostFun 0x0x404110, fat_cubin_handle = 1
GPGPU-Sim PTX: __cudaRegisterFunction _Z25histo_prescan_kernel_nvmuPjiS_ : hostFun 0x0x403f89, fat_cubin_handle = 1
GPGPU-Sim PTX: __cudaRegisterFunction _Z25histo_prescan_kernel_nvmoPjiS_ : hostFun 0x0x403e2f, fat_cubin_handle = 1
GPGPU-Sim PTX: __cudaRegisterFunction _Z25histo_prescan_kernel_nvmbPjiS_ : hostFun 0x0x403cd5, fat_cubin_handle = 1
GPGPU-Sim PTX: __cudaRegisterFunction _Z20histo_prescan_kernelPjiS_ : hostFun 0x0x403b7b, fat_cubin_handle = 1
self exe links to: /home/pli11/Videos/parboil_benchmark/parboil/benchmarks/histo/build/nvm_sk_default/histo
self exe links to: /home/pli11/Videos/parboil_benchmark/parboil/benchmarks/histo/build/nvm_sk_default/histo
10.1
GPGPU-Sim PTX: __cudaRegisterFatBinary, fat_cubin_handle = 2, filename=default
/home/pli11/Videos/parboil_benchmark/parboil/benchmarks/histo/build/nvm_sk_default/histo -i /home/pli11/Videos/parboil_benchmark/parboil/datasets/histo/default/input/img.bin -o /home/pli11/Videos/parboil_benchmark/parboil/benchmarks/histo/run/default/ref.bmp -- 20 4 k 
event update
GPGPU-Sim: synchronize waiting for inactive GPU simulation
GPGPU-Sim API: Stream Manager State
GPGPU-Sim: detected inactive GPU simulation thread
event update
GPGPU-Sim: synchronize waiting for inactive GPU simulation
GPGPU-Sim API: Stream Manager State
GPGPU-Sim: detected inactive GPU simulation thread
GPGPU-Sim PTX: Setting up arguments for 8 bytes starting at 0x7ffdaab531e8..
GPGPU-Sim PTX: Setting up arguments for 4 bytes starting at 0x7ffdaab531e4..
GPGPU-Sim PTX: Setting up arguments for 8 bytes starting at 0x7ffdaab531d8..

GPGPU-Sim PTX: cudaLaunch for 0x0x403b7b (mode=performance simulation) on stream 0
GPGPU-Sim PTX: finding reconvergence points for '_Z20histo_prescan_kernelPjiS_'...
GPGPU-Sim PTX: Finding dominators for '_Z20histo_prescan_kernelPjiS_'...
GPGPU-Sim PTX: Finding immediate dominators for '_Z20histo_prescan_kernelPjiS_'...
GPGPU-Sim PTX: Finding postdominators for '_Z20histo_prescan_kernelPjiS_'...
GPGPU-Sim PTX: Finding immediate postdominators for '_Z20histo_prescan_kernelPjiS_'...
GPGPU-Sim PTX: pre-decoding instructions for '_Z20histo_prescan_kernelPjiS_'...
GPGPU-Sim PTX: reconvergence points for _Z20histo_prescan_kernelPjiS_...
GPGPU-Sim PTX:  1 (potential) branch divergence @  PC=0x098 (histo.1.sm_70.ptx:59) @%p1 bra BB0_4;
GPGPU-Sim PTX:    immediate post dominator      @  PC=0x110 (histo.1.sm_70.ptx:80) shl.b32 %r25, %r1, 2;
GPGPU-Sim PTX:  2 (potential) branch divergence @  PC=0x100 (histo.1.sm_70.ptx:75) @%p2 bra BB0_2;
GPGPU-Sim PTX:    immediate post dominator      @  PC=0x108 (histo.1.sm_70.ptx:77) cvt.rn.f32.u32%f80, %r36;
GPGPU-Sim PTX:  3 (potential) branch divergence @  PC=0x138 (histo.1.sm_70.ptx:85) @%p1 bra BB0_7;
GPGPU-Sim PTX:    immediate post dominator      @  PC=0x198 (histo.1.sm_70.ptx:102) div.rn.f32 %f18, %f83, %f80;
GPGPU-Sim PTX:  4 (potential) branch divergence @  PC=0x190 (histo.1.sm_70.ptx:99) @%p4 bra BB0_6;
GPGPU-Sim PTX:    immediate post dominator      @  PC=0x198 (histo.1.sm_70.ptx:102) div.rn.f32 %f18, %f83, %f80;
GPGPU-Sim PTX:  5 (potential) branch divergence @  PC=0x1d0 (histo.1.sm_70.ptx:109) @%p5 bra BB0_9;
GPGPU-Sim PTX:    immediate post dominator      @  PC=0x218 (histo.1.sm_70.ptx:121) bar.sync 0;
GPGPU-Sim PTX:  6 (potential) branch divergence @  PC=0x228 (histo.1.sm_70.ptx:123) @%p6 bra BB0_11;
GPGPU-Sim PTX:    immediate post dominator      @  PC=0x270 (histo.1.sm_70.ptx:135) bar.sync 0;
GPGPU-Sim PTX:  7 (potential) branch divergence @  PC=0x280 (histo.1.sm_70.ptx:137) @%p7 bra BB0_13;
GPGPU-Sim PTX:    immediate post dominator      @  PC=0x2c8 (histo.1.sm_70.ptx:149) bar.sync 0;
GPGPU-Sim PTX:  8 (potential) branch divergence @  PC=0x2d8 (histo.1.sm_70.ptx:151) @%p8 bra BB0_15;
GPGPU-Sim PTX:    immediate post dominator      @  PC=0x320 (histo.1.sm_70.ptx:163) setp.gt.u32%p9, %r1, 15;
GPGPU-Sim PTX:  9 (potential) branch divergence @  PC=0x328 (histo.1.sm_70.ptx:164) @%p9 bra BB0_17;
GPGPU-Sim PTX:    immediate post dominator      @  PC=0x370 (histo.1.sm_70.ptx:176) setp.gt.u32%p10, %r1, 7;
GPGPU-Sim PTX: 10 (potential) branch divergence @  PC=0x378 (histo.1.sm_70.ptx:177) @%p10 bra BB0_19;
GPGPU-Sim PTX:    immediate post dominator      @  PC=0x3c0 (histo.1.sm_70.ptx:189) setp.gt.u32%p11, %r1, 3;
GPGPU-Sim PTX: 11 (potential) branch divergence @  PC=0x3c8 (histo.1.sm_70.ptx:190) @%p11 bra BB0_21;
GPGPU-Sim PTX:    immediate post dominator      @  PC=0x410 (histo.1.sm_70.ptx:202) setp.gt.u32%p12, %r1, 1;
GPGPU-Sim PTX: 12 (potential) branch divergence @  PC=0x418 (histo.1.sm_70.ptx:203) @%p12 bra BB0_23;
GPGPU-Sim PTX:    immediate post dominator      @  PC=0x460 (histo.1.sm_70.ptx:215) setp.ne.s32%p13, %r1, 0;
GPGPU-Sim PTX: 13 (potential) branch divergence @  PC=0x468 (histo.1.sm_70.ptx:216) @%p13 bra BB0_25;
GPGPU-Sim PTX:    immediate post dominator      @  PC=0x508 (histo.1.sm_70.ptx:239) ret;
GPGPU-Sim PTX: ... end of reconvergence points for _Z20histo_prescan_kernelPjiS_
GPGPU-Sim PTX: ... done pre-decoding instructions for '_Z20histo_prescan_kernelPjiS_'.
GPGPU-Sim PTX: pushing kernel '_Z20histo_prescan_kernelPjiS_' to stream 0, gridDim= (64,1,1) blockDim = (512,1,1) 
GPGPU-Sim uArch: Shader 0 bind to kernel 1 '_Z20histo_prescan_kernelPjiS_'
GPGPU-Sim uArch: CTA/core = 4, limited by: threads
GPGPU-Sim: Reconfigure L1 cache to 120KB
GPGPU-Sim uArch: Shader 1 bind to kernel 1 '_Z20histo_prescan_kernelPjiS_'
GPGPU-Sim uArch: Shader 2 bind to kernel 1 '_Z20histo_prescan_kernelPjiS_'
GPGPU-Sim uArch: Shader 3 bind to kernel 1 '_Z20histo_prescan_kernelPjiS_'
GPGPU-Sim uArch: Shader 4 bind to kernel 1 '_Z20histo_prescan_kernelPjiS_'
GPGPU-Sim uArch: Shader 5 bind to kernel 1 '_Z20histo_prescan_kernelPjiS_'
GPGPU-Sim uArch: Shader 6 bind to kernel 1 '_Z20histo_prescan_kernelPjiS_'
GPGPU-Sim uArch: Shader 7 bind to kernel 1 '_Z20histo_prescan_kernelPjiS_'
GPGPU-Sim uArch: Shader 8 bind to kernel 1 '_Z20histo_prescan_kernelPjiS_'
GPGPU-Sim uArch: Shader 9 bind to kernel 1 '_Z20histo_prescan_kernelPjiS_'
GPGPU-Sim uArch: Shader 10 bind to kernel 1 '_Z20histo_prescan_kernelPjiS_'
GPGPU-Sim uArch: Shader 11 bind to kernel 1 '_Z20histo_prescan_kernelPjiS_'
GPGPU-Sim uArch: Shader 12 bind to kernel 1 '_Z20histo_prescan_kernelPjiS_'
GPGPU-Sim uArch: Shader 13 bind to kernel 1 '_Z20histo_prescan_kernelPjiS_'
GPGPU-Sim uArch: Shader 14 bind to kernel 1 '_Z20histo_prescan_kernelPjiS_'
GPGPU-Sim uArch: Shader 15 bind to kernel 1 '_Z20histo_prescan_kernelPjiS_'
GPGPU-Sim uArch: Shader 16 bind to kernel 1 '_Z20histo_prescan_kernelPjiS_'
GPGPU-Sim uArch: Shader 17 bind to kernel 1 '_Z20histo_prescan_kernelPjiS_'
GPGPU-Sim uArch: Shader 18 bind to kernel 1 '_Z20histo_prescan_kernelPjiS_'
GPGPU-Sim uArch: Shader 19 bind to kernel 1 '_Z20histo_prescan_kernelPjiS_'
GPGPU-Sim uArch: Shader 20 bind to kernel 1 '_Z20histo_prescan_kernelPjiS_'
GPGPU-Sim uArch: Shader 21 bind to kernel 1 '_Z20histo_prescan_kernelPjiS_'
GPGPU-Sim uArch: Shader 22 bind to kernel 1 '_Z20histo_prescan_kernelPjiS_'
GPGPU-Sim uArch: Shader 23 bind to kernel 1 '_Z20histo_prescan_kernelPjiS_'
GPGPU-Sim uArch: Shader 24 bind to kernel 1 '_Z20histo_prescan_kernelPjiS_'
GPGPU-Sim uArch: Shader 25 bind to kernel 1 '_Z20histo_prescan_kernelPjiS_'
GPGPU-Sim uArch: Shader 26 bind to kernel 1 '_Z20histo_prescan_kernelPjiS_'
GPGPU-Sim uArch: Shader 27 bind to kernel 1 '_Z20histo_prescan_kernelPjiS_'
GPGPU-Sim uArch: Shader 28 bind to kernel 1 '_Z20histo_prescan_kernelPjiS_'
GPGPU-Sim uArch: Shader 29 bind to kernel 1 '_Z20histo_prescan_kernelPjiS_'
GPGPU-Sim uArch: Shader 30 bind to kernel 1 '_Z20histo_prescan_kernelPjiS_'
GPGPU-Sim uArch: Shader 31 bind to kernel 1 '_Z20histo_prescan_kernelPjiS_'
GPGPU-Sim uArch: Shader 32 bind to kernel 1 '_Z20histo_prescan_kernelPjiS_'
GPGPU-Sim uArch: Shader 33 bind to kernel 1 '_Z20histo_prescan_kernelPjiS_'
GPGPU-Sim uArch: Shader 34 bind to kernel 1 '_Z20histo_prescan_kernelPjiS_'
GPGPU-Sim uArch: Shader 35 bind to kernel 1 '_Z20histo_prescan_kernelPjiS_'
GPGPU-Sim uArch: Shader 36 bind to kernel 1 '_Z20histo_prescan_kernelPjiS_'
GPGPU-Sim uArch: Shader 37 bind to kernel 1 '_Z20histo_prescan_kernelPjiS_'
GPGPU-Sim uArch: Shader 38 bind to kernel 1 '_Z20histo_prescan_kernelPjiS_'
GPGPU-Sim uArch: Shader 39 bind to kernel 1 '_Z20histo_prescan_kernelPjiS_'
GPGPU-Sim uArch: Shader 40 bind to kernel 1 '_Z20histo_prescan_kernelPjiS_'
GPGPU-Sim uArch: Shader 41 bind to kernel 1 '_Z20histo_prescan_kernelPjiS_'
GPGPU-Sim uArch: Shader 42 bind to kernel 1 '_Z20histo_prescan_kernelPjiS_'
GPGPU-Sim uArch: Shader 43 bind to kernel 1 '_Z20histo_prescan_kernelPjiS_'
GPGPU-Sim uArch: Shader 44 bind to kernel 1 '_Z20histo_prescan_kernelPjiS_'
GPGPU-Sim uArch: Shader 45 bind to kernel 1 '_Z20histo_prescan_kernelPjiS_'
GPGPU-Sim uArch: Shader 46 bind to kernel 1 '_Z20histo_prescan_kernelPjiS_'
GPGPU-Sim uArch: Shader 47 bind to kernel 1 '_Z20histo_prescan_kernelPjiS_'
GPGPU-Sim uArch: Shader 48 bind to kernel 1 '_Z20histo_prescan_kernelPjiS_'
GPGPU-Sim uArch: Shader 49 bind to kernel 1 '_Z20histo_prescan_kernelPjiS_'
GPGPU-Sim uArch: Shader 50 bind to kernel 1 '_Z20histo_prescan_kernelPjiS_'
GPGPU-Sim uArch: Shader 51 bind to kernel 1 '_Z20histo_prescan_kernelPjiS_'
GPGPU-Sim uArch: Shader 52 bind to kernel 1 '_Z20histo_prescan_kernelPjiS_'
GPGPU-Sim uArch: Shader 53 bind to kernel 1 '_Z20histo_prescan_kernelPjiS_'
GPGPU-Sim uArch: Shader 54 bind to kernel 1 '_Z20histo_prescan_kernelPjiS_'
GPGPU-Sim uArch: Shader 55 bind to kernel 1 '_Z20histo_prescan_kernelPjiS_'
GPGPU-Sim uArch: Shader 56 bind to kernel 1 '_Z20histo_prescan_kernelPjiS_'
GPGPU-Sim uArch: Shader 57 bind to kernel 1 '_Z20histo_prescan_kernelPjiS_'
GPGPU-Sim uArch: Shader 58 bind to kernel 1 '_Z20histo_prescan_kernelPjiS_'
GPGPU-Sim uArch: Shader 59 bind to kernel 1 '_Z20histo_prescan_kernelPjiS_'
GPGPU-Sim uArch: Shader 60 bind to kernel 1 '_Z20histo_prescan_kernelPjiS_'
GPGPU-Sim uArch: Shader 61 bind to kernel 1 '_Z20histo_prescan_kernelPjiS_'
GPGPU-Sim uArch: Shader 62 bind to kernel 1 '_Z20histo_prescan_kernelPjiS_'
GPGPU-Sim uArch: Shader 63 bind to kernel 1 '_Z20histo_prescan_kernelPjiS_'
Destroy streams for kernel 1: size 0
kernel_name = _Z20histo_prescan_kernelPjiS_ 
kernel_launch_uid = 1 
gpu_sim_cycle = 8076
gpu_sim_insn = 4427904
gpu_ipc =     548.2794
gpu_tot_sim_cycle = 8076
gpu_tot_sim_insn = 4427904
gpu_tot_ipc =     548.2794
gpu_tot_issued_cta = 64
gpu_occupancy = 18.7382% 
gpu_tot_occupancy = 18.7382% 
max_total_param_size = 0
gpu_stall_dramfull = 0
gpu_stall_icnt2sh    = 0
partiton_level_parallism =       2.0267
partiton_level_parallism_total  =       2.0267
partiton_level_parallism_util =      25.1043
partiton_level_parallism_util_total  =      25.1043
L2_BW  =      73.4168 GB/Sec
L2_BW_total  =      73.4168 GB/Sec
gpu_total_sim_rate=126511
############## bottleneck_stats #############
cycles: core 8076, icnt 8076, l2 8076, dram 6064
gpu_ipc	548.279
gpu_tot_issued_cta = 64, average cycles = 126
n_dram_writes	 0, n_dram_reads	 0
n_GLOBAL_ACC_R	 0 
n_LOCAL_ACC_R	 0 
n_CONST_ACC_R	 0 
n_TEXTURE_ACC_R	 0 
n_GLOBAL_ACC_W	 0 
n_LOCAL_ACC_W	 0 
n_L1_WRBK_ACC	 0 
n_L2_WRBK_ACC	 0 
n_L1_WR_ALLOC_R	 0 
n_L2_WR_ALLOC_R	 0 

n_sm	 80, n_schedulers	 4
scheduler util	0.057	64
L1D data util	0.131	64	0.165	2
L1D tag util	0.061	64	0.079	2
L2 data util	0.032	64	0.046	51
L2 tag util	0.032	64	0.046	51
n_l2_access	 16368
icnt s2m util	0.000	0	0.000	51	flits per packet: -nan
icnt m2s util	0.000	0	0.000	51	flits per packet: -nan
sum=0
n_mem	 32
dram util	0.000	0	0.000	51

latency_l1_hit:	397120, num_l1_reqs:	19856
L1 hit latency:	20
latency_l2_hit:	3151935, num_l2_reqs:	16368
L2 hit latency:	192

n_reg	65536, n_smem	98304, n_thread	2048, n_tb	32
reg file	0.750
smem size	0.167
thread slot	1.000
TB slot    	0.125
L1I tag util	0.129	64	0.162	0

n_mem_pipe	1, n_sp_pipe	4, n_sfu_pipe	4
mem pipe util	0.032	64	0.041	0
sp pipe util	0.009	64	0.011	0
sfu pipe util	0.010	64	0.012	0
ldst mem cycle	0.000	64	0.000	0

smem port	0.015	64

n_reg_bank	16
reg port	0.035	16	0.057	1
L1D tag util	0.061	64	0.079	2
L1D fill util	0.025	64	0.031	2
n_l1d_mshr	4096
L1D mshr util	0.001	64
n_l1d_missq	16
L1D missq util	0.002	64
L1D hit rate	0.502
L1D miss rate	0.498
L1D rsfail rate	0.000
L2 tag util	0.032	64	0.046	51
L2 fill util	0.000	0	0.000	51
n_l2_mshr	192
n_l2_missq	32
L2 mshr util	0.000	0	0.000	51
L2 missq util	0.000	0	0.000	51
L2 hit rate	1.000
L2 miss rate	0.000
L2 rsfail rate	0.000

dram activity	0.000	0	0.000	51

load trans eff	0.816
load trans sz	32.000
load_useful_bytes 1036288, load_transaction_bytes 1269248, icnt_m2s_bytes 0
n_gmem_load_insns 8320, n_gmem_load_accesses 39664
n_smem_access_insn 9600, n_smem_accesses 9600

tmp_counter/12	0.032

run 0.072, fetch 0.004, sync 0.114, control 0.007, data 0.799, struct 0.004
############ end_bottleneck_stats #############

========= Core cache stats =========
L1I_cache:
	L1I_total_cache_accesses = 0
	L1I_total_cache_misses = 0
	L1I_total_cache_pending_hits = 0
	L1I_total_cache_reservation_fails = 0
L1D_cache:
	L1D_cache_core[0]: Access = 506, Miss = 253, Miss_rate = 0.500, Pending_hits = 0, Reservation_fails = 0
	L1D_cache_core[1]: Access = 632, Miss = 316, Miss_rate = 0.500, Pending_hits = 0, Reservation_fails = 0
	L1D_cache_core[2]: Access = 634, Miss = 314, Miss_rate = 0.495, Pending_hits = 0, Reservation_fails = 0
	L1D_cache_core[3]: Access = 634, Miss = 315, Miss_rate = 0.497, Pending_hits = 0, Reservation_fails = 0
	L1D_cache_core[4]: Access = 634, Miss = 316, Miss_rate = 0.498, Pending_hits = 0, Reservation_fails = 0
	L1D_cache_core[5]: Access = 634, Miss = 317, Miss_rate = 0.500, Pending_hits = 0, Reservation_fails = 0
	L1D_cache_core[6]: Access = 634, Miss = 317, Miss_rate = 0.500, Pending_hits = 0, Reservation_fails = 0
	L1D_cache_core[7]: Access = 634, Miss = 317, Miss_rate = 0.500, Pending_hits = 0, Reservation_fails = 0
	L1D_cache_core[8]: Access = 506, Miss = 253, Miss_rate = 0.500, Pending_hits = 0, Reservation_fails = 0
	L1D_cache_core[9]: Access = 632, Miss = 313, Miss_rate = 0.495, Pending_hits = 0, Reservation_fails = 0
	L1D_cache_core[10]: Access = 634, Miss = 314, Miss_rate = 0.495, Pending_hits = 0, Reservation_fails = 0
	L1D_cache_core[11]: Access = 634, Miss = 314, Miss_rate = 0.495, Pending_hits = 0, Reservation_fails = 0
	L1D_cache_core[12]: Access = 634, Miss = 315, Miss_rate = 0.497, Pending_hits = 0, Reservation_fails = 0
	L1D_cache_core[13]: Access = 634, Miss = 316, Miss_rate = 0.498, Pending_hits = 0, Reservation_fails = 0
	L1D_cache_core[14]: Access = 634, Miss = 317, Miss_rate = 0.500, Pending_hits = 0, Reservation_fails = 0
	L1D_cache_core[15]: Access = 634, Miss = 317, Miss_rate = 0.500, Pending_hits = 0, Reservation_fails = 0
	L1D_cache_core[16]: Access = 506, Miss = 253, Miss_rate = 0.500, Pending_hits = 0, Reservation_fails = 0
	L1D_cache_core[17]: Access = 632, Miss = 316, Miss_rate = 0.500, Pending_hits = 0, Reservation_fails = 0
	L1D_cache_core[18]: Access = 634, Miss = 314, Miss_rate = 0.495, Pending_hits = 0, Reservation_fails = 0
	L1D_cache_core[19]: Access = 634, Miss = 314, Miss_rate = 0.495, Pending_hits = 0, Reservation_fails = 0
	L1D_cache_core[20]: Access = 634, Miss = 315, Miss_rate = 0.497, Pending_hits = 0, Reservation_fails = 0
	L1D_cache_core[21]: Access = 634, Miss = 314, Miss_rate = 0.495, Pending_hits = 0, Reservation_fails = 0
	L1D_cache_core[22]: Access = 634, Miss = 316, Miss_rate = 0.498, Pending_hits = 0, Reservation_fails = 0
	L1D_cache_core[23]: Access = 634, Miss = 315, Miss_rate = 0.497, Pending_hits = 0, Reservation_fails = 0
	L1D_cache_core[24]: Access = 506, Miss = 253, Miss_rate = 0.500, Pending_hits = 0, Reservation_fails = 0
	L1D_cache_core[25]: Access = 632, Miss = 313, Miss_rate = 0.495, Pending_hits = 0, Reservation_fails = 0
	L1D_cache_core[26]: Access = 634, Miss = 314, Miss_rate = 0.495, Pending_hits = 0, Reservation_fails = 0
	L1D_cache_core[27]: Access = 634, Miss = 314, Miss_rate = 0.495, Pending_hits = 0, Reservation_fails = 0
	L1D_cache_core[28]: Access = 634, Miss = 315, Miss_rate = 0.497, Pending_hits = 0, Reservation_fails = 0
	L1D_cache_core[29]: Access = 634, Miss = 316, Miss_rate = 0.498, Pending_hits = 0, Reservation_fails = 0
	L1D_cache_core[30]: Access = 634, Miss = 315, Miss_rate = 0.497, Pending_hits = 0, Reservation_fails = 0
	L1D_cache_core[31]: Access = 634, Miss = 315, Miss_rate = 0.497, Pending_hits = 0, Reservation_fails = 0
	L1D_cache_core[32]: Access = 506, Miss = 253, Miss_rate = 0.500, Pending_hits = 0, Reservation_fails = 0
	L1D_cache_core[33]: Access = 632, Miss = 313, Miss_rate = 0.495, Pending_hits = 0, Reservation_fails = 0
	L1D_cache_core[34]: Access = 634, Miss = 314, Miss_rate = 0.495, Pending_hits = 0, Reservation_fails = 0
	L1D_cache_core[35]: Access = 634, Miss = 315, Miss_rate = 0.497, Pending_hits = 0, Reservation_fails = 0
	L1D_cache_core[36]: Access = 634, Miss = 316, Miss_rate = 0.498, Pending_hits = 0, Reservation_fails = 0
	L1D_cache_core[37]: Access = 634, Miss = 315, Miss_rate = 0.497, Pending_hits = 0, Reservation_fails = 0
	L1D_cache_core[38]: Access = 634, Miss = 315, Miss_rate = 0.497, Pending_hits = 0, Reservation_fails = 0
	L1D_cache_core[39]: Access = 634, Miss = 316, Miss_rate = 0.498, Pending_hits = 0, Reservation_fails = 0
	L1D_cache_core[40]: Access = 506, Miss = 253, Miss_rate = 0.500, Pending_hits = 0, Reservation_fails = 0
	L1D_cache_core[41]: Access = 632, Miss = 315, Miss_rate = 0.498, Pending_hits = 0, Reservation_fails = 0
	L1D_cache_core[42]: Access = 634, Miss = 317, Miss_rate = 0.500, Pending_hits = 0, Reservation_fails = 0
	L1D_cache_core[43]: Access = 634, Miss = 315, Miss_rate = 0.497, Pending_hits = 0, Reservation_fails = 0
	L1D_cache_core[44]: Access = 634, Miss = 314, Miss_rate = 0.495, Pending_hits = 0, Reservation_fails = 0
	L1D_cache_core[45]: Access = 634, Miss = 316, Miss_rate = 0.498, Pending_hits = 0, Reservation_fails = 0
	L1D_cache_core[46]: Access = 634, Miss = 315, Miss_rate = 0.497, Pending_hits = 0, Reservation_fails = 0
	L1D_cache_core[47]: Access = 634, Miss = 317, Miss_rate = 0.500, Pending_hits = 0, Reservation_fails = 0
	L1D_cache_core[48]: Access = 506, Miss = 253, Miss_rate = 0.500, Pending_hits = 0, Reservation_fails = 0
	L1D_cache_core[49]: Access = 632, Miss = 313, Miss_rate = 0.495, Pending_hits = 0, Reservation_fails = 0
	L1D_cache_core[50]: Access = 634, Miss = 316, Miss_rate = 0.498, Pending_hits = 0, Reservation_fails = 0
	L1D_cache_core[51]: Access = 634, Miss = 314, Miss_rate = 0.495, Pending_hits = 0, Reservation_fails = 0
	L1D_cache_core[52]: Access = 634, Miss = 316, Miss_rate = 0.498, Pending_hits = 0, Reservation_fails = 0
	L1D_cache_core[53]: Access = 634, Miss = 315, Miss_rate = 0.497, Pending_hits = 0, Reservation_fails = 0
	L1D_cache_core[54]: Access = 634, Miss = 316, Miss_rate = 0.498, Pending_hits = 0, Reservation_fails = 0
	L1D_cache_core[55]: Access = 634, Miss = 315, Miss_rate = 0.497, Pending_hits = 0, Reservation_fails = 0
	L1D_cache_core[56]: Access = 506, Miss = 253, Miss_rate = 0.500, Pending_hits = 0, Reservation_fails = 0
	L1D_cache_core[57]: Access = 632, Miss = 316, Miss_rate = 0.500, Pending_hits = 0, Reservation_fails = 0
	L1D_cache_core[58]: Access = 634, Miss = 317, Miss_rate = 0.500, Pending_hits = 0, Reservation_fails = 0
	L1D_cache_core[59]: Access = 634, Miss = 314, Miss_rate = 0.495, Pending_hits = 0, Reservation_fails = 0
	L1D_cache_core[60]: Access = 634, Miss = 316, Miss_rate = 0.498, Pending_hits = 0, Reservation_fails = 0
	L1D_cache_core[61]: Access = 634, Miss = 317, Miss_rate = 0.500, Pending_hits = 0, Reservation_fails = 0
	L1D_cache_core[62]: Access = 634, Miss = 317, Miss_rate = 0.500, Pending_hits = 0, Reservation_fails = 0
	L1D_cache_core[63]: Access = 634, Miss = 317, Miss_rate = 0.500, Pending_hits = 0, Reservation_fails = 0
	L1D_cache_core[64]: Access = 0, Miss = 0, Miss_rate = -nan, Pending_hits = 0, Reservation_fails = 0
	L1D_cache_core[65]: Access = 0, Miss = 0, Miss_rate = -nan, Pending_hits = 0, Reservation_fails = 0
	L1D_cache_core[66]: Access = 0, Miss = 0, Miss_rate = -nan, Pending_hits = 0, Reservation_fails = 0
	L1D_cache_core[67]: Access = 0, Miss = 0, Miss_rate = -nan, Pending_hits = 0, Reservation_fails = 0
	L1D_cache_core[68]: Access = 0, Miss = 0, Miss_rate = -nan, Pending_hits = 0, Reservation_fails = 0
	L1D_cache_core[69]: Access = 0, Miss = 0, Miss_rate = -nan, Pending_hits = 0, Reservation_fails = 0
	L1D_cache_core[70]: Access = 0, Miss = 0, Miss_rate = -nan, Pending_hits = 0, Reservation_fails = 0
	L1D_cache_core[71]: Access = 0, Miss = 0, Miss_rate = -nan, Pending_hits = 0, Reservation_fails = 0
	L1D_cache_core[72]: Access = 0, Miss = 0, Miss_rate = -nan, Pending_hits = 0, Reservation_fails = 0
	L1D_cache_core[73]: Access = 0, Miss = 0, Miss_rate = -nan, Pending_hits = 0, Reservation_fails = 0
	L1D_cache_core[74]: Access = 0, Miss = 0, Miss_rate = -nan, Pending_hits = 0, Reservation_fails = 0
	L1D_cache_core[75]: Access = 0, Miss = 0, Miss_rate = -nan, Pending_hits = 0, Reservation_fails = 0
	L1D_cache_core[76]: Access = 0, Miss = 0, Miss_rate = -nan, Pending_hits = 0, Reservation_fails = 0
	L1D_cache_core[77]: Access = 0, Miss = 0, Miss_rate = -nan, Pending_hits = 0, Reservation_fails = 0
	L1D_cache_core[78]: Access = 0, Miss = 0, Miss_rate = -nan, Pending_hits = 0, Reservation_fails = 0
	L1D_cache_core[79]: Access = 0, Miss = 0, Miss_rate = -nan, Pending_hits = 0, Reservation_fails = 0
	L1D_total_cache_accesses = 39536
	L1D_total_cache_misses = 19680
	L1D_total_cache_miss_rate = 0.4978
	L1D_total_cache_pending_hits = 0
	L1D_total_cache_reservation_fails = 0
	L1D_cache_data_port_util = 0.102
	L1D_cache_fill_port_util = 0.083
L1C_cache:
	L1C_total_cache_accesses = 0
	L1C_total_cache_misses = 0
	L1C_total_cache_pending_hits = 0
	L1C_total_cache_reservation_fails = 0
L1T_cache:
	L1T_total_cache_accesses = 0
	L1T_total_cache_misses = 0
	L1T_total_cache_pending_hits = 0
	L1T_total_cache_reservation_fails = 0

Total_core_cache_stats:
	Total_core_cache_stats_breakdown[GLOBAL_ACC_R][HIT] = 19856
	Total_core_cache_stats_breakdown[GLOBAL_ACC_R][HIT_RESERVED] = 0
	Total_core_cache_stats_breakdown[GLOBAL_ACC_R][MISS] = 10258
	Total_core_cache_stats_breakdown[GLOBAL_ACC_R][RESERVATION_FAIL] = 0
	Total_core_cache_stats_breakdown[GLOBAL_ACC_R][SECTOR_MISS] = 9422
	Total_core_cache_stats_breakdown[LOCAL_ACC_R][HIT] = 0
	Total_core_cache_stats_breakdown[LOCAL_ACC_R][HIT_RESERVED] = 0
	Total_core_cache_stats_breakdown[LOCAL_ACC_R][MISS] = 0
	Total_core_cache_stats_breakdown[LOCAL_ACC_R][RESERVATION_FAIL] = 0
	Total_core_cache_stats_breakdown[LOCAL_ACC_R][SECTOR_MISS] = 0
	Total_core_cache_stats_breakdown[CONST_ACC_R][HIT] = 0
	Total_core_cache_stats_breakdown[CONST_ACC_R][HIT_RESERVED] = 0
	Total_core_cache_stats_breakdown[CONST_ACC_R][MISS] = 0
	Total_core_cache_stats_breakdown[CONST_ACC_R][RESERVATION_FAIL] = 0
	Total_core_cache_stats_breakdown[CONST_ACC_R][SECTOR_MISS] = 0
	Total_core_cache_stats_breakdown[TEXTURE_ACC_R][HIT] = 0
	Total_core_cache_stats_breakdown[TEXTURE_ACC_R][HIT_RESERVED] = 0
	Total_core_cache_stats_breakdown[TEXTURE_ACC_R][MISS] = 0
	Total_core_cache_stats_breakdown[TEXTURE_ACC_R][RESERVATION_FAIL] = 0
	Total_core_cache_stats_breakdown[TEXTURE_ACC_R][SECTOR_MISS] = 0
	Total_core_cache_stats_breakdown[GLOBAL_ACC_W][HIT] = 0
	Total_core_cache_stats_breakdown[GLOBAL_ACC_W][HIT_RESERVED] = 0
	Total_core_cache_stats_breakdown[GLOBAL_ACC_W][MISS] = 0
	Total_core_cache_stats_breakdown[GLOBAL_ACC_W][RESERVATION_FAIL] = 0
	Total_core_cache_stats_breakdown[GLOBAL_ACC_W][SECTOR_MISS] = 0
	Total_core_cache_stats_breakdown[LOCAL_ACC_W][HIT] = 0
	Total_core_cache_stats_breakdown[LOCAL_ACC_W][HIT_RESERVED] = 0
	Total_core_cache_stats_breakdown[LOCAL_ACC_W][MISS] = 0
	Total_core_cache_stats_breakdown[LOCAL_ACC_W][RESERVATION_FAIL] = 0
	Total_core_cache_stats_breakdown[LOCAL_ACC_W][SECTOR_MISS] = 0
	Total_core_cache_stats_breakdown[L1_WRBK_ACC][HIT] = 0
	Total_core_cache_stats_breakdown[L1_WRBK_ACC][HIT_RESERVED] = 0
	Total_core_cache_stats_breakdown[L1_WRBK_ACC][MISS] = 0
	Total_core_cache_stats_breakdown[L1_WRBK_ACC][RESERVATION_FAIL] = 0
	Total_core_cache_stats_breakdown[L1_WRBK_ACC][SECTOR_MISS] = 0
	Total_core_cache_stats_breakdown[L2_WRBK_ACC][HIT] = 0
	Total_core_cache_stats_breakdown[L2_WRBK_ACC][HIT_RESERVED] = 0
	Total_core_cache_stats_breakdown[L2_WRBK_ACC][MISS] = 0
	Total_core_cache_stats_breakdown[L2_WRBK_ACC][RESERVATION_FAIL] = 0
	Total_core_cache_stats_breakdown[L2_WRBK_ACC][SECTOR_MISS] = 0
	Total_core_cache_stats_breakdown[INST_ACC_R][HIT] = 0
	Total_core_cache_stats_breakdown[INST_ACC_R][HIT_RESERVED] = 0
	Total_core_cache_stats_breakdown[INST_ACC_R][MISS] = 0
	Total_core_cache_stats_breakdown[INST_ACC_R][RESERVATION_FAIL] = 0
	Total_core_cache_stats_breakdown[INST_ACC_R][SECTOR_MISS] = 0
	Total_core_cache_stats_breakdown[L1_WR_ALLOC_R][HIT] = 0
	Total_core_cache_stats_breakdown[L1_WR_ALLOC_R][HIT_RESERVED] = 0
	Total_core_cache_stats_breakdown[L1_WR_ALLOC_R][MISS] = 0
	Total_core_cache_stats_breakdown[L1_WR_ALLOC_R][RESERVATION_FAIL] = 0
	Total_core_cache_stats_breakdown[L1_WR_ALLOC_R][SECTOR_MISS] = 0
	Total_core_cache_stats_breakdown[L2_WR_ALLOC_R][HIT] = 0
	Total_core_cache_stats_breakdown[L2_WR_ALLOC_R][HIT_RESERVED] = 0
	Total_core_cache_stats_breakdown[L2_WR_ALLOC_R][MISS] = 0
	Total_core_cache_stats_breakdown[L2_WR_ALLOC_R][RESERVATION_FAIL] = 0
	Total_core_cache_stats_breakdown[L2_WR_ALLOC_R][SECTOR_MISS] = 0
	Total_core_cache_stats_breakdown[GLOBAL_ACC_R][TOTAL_ACCESS] = 39536

Total_core_cache_fail_stats:
Shader 0 warp_id issue ditsribution:
warp_id:
0, 1, 2, 3, 4, 5, 6, 7, 8, 9, 10, 11, 12, 13, 14, 15, 
distro:
216, 157, 149, 149, 141, 141, 141, 141, 133, 133, 133, 133, 133, 133, 133, 133, 
gpgpu_n_tot_thrd_icount = 4708352
gpgpu_n_tot_w_icount = 147136
gpgpu_n_stall_shd_mem = 31344
gpgpu_n_mem_read_local = 0
gpgpu_n_mem_write_local = 0
gpgpu_n_mem_read_global = 16368
gpgpu_n_mem_write_global = 0
gpgpu_n_mem_texture = 0
gpgpu_n_mem_const = 0
gpgpu_n_load_insn  = 259072
gpgpu_n_store_insn = 0
gpgpu_n_shmem_insn = 261632
gpgpu_n_sstarr_insn = 0
gpgpu_n_tex_insn = 0
gpgpu_n_const_mem_insn = 0
gpgpu_n_param_mem_insn = 98304
gpgpu_n_shmem_bkconflict = 0
gpgpu_n_cache_bkconflict = 0
gpgpu_n_intrawarp_mshr_merge = 0
gpgpu_n_cmem_portconflict = 0
gpgpu_stall_shd_mem[c_mem][resource_stall] = 0
gpgpu_stall_shd_mem[s_mem][bk_conf] = 0
gpgpu_stall_shd_mem[gl_mem][resource_stall] = 31344
gpgpu_stall_shd_mem[gl_mem][coal_stall] = 0
gpgpu_stall_shd_mem[gl_mem][data_port_stall] = 0
gpu_reg_bank_conflict_stalls = 0
Warp Occupancy Distribution:
Stall:7900	W0_Idle:193841	W0_Scoreboard:430171	W1:1216	W2:512	W3:0	W4:512	W5:0	W6:0	W7:1152	W8:512	W9:0	W10:0	W11:0	W12:0	W13:0	W14:0	W15:0	W16:512	W17:0	W18:0	W19:0	W20:0	W21:0	W22:0	W23:0	W24:0	W25:0	W26:0	W27:0	W28:0	W29:0	W30:0	W31:0	W32:142720
single_issue_nums: WS0:39872	WS1:36096	WS2:35584	WS3:35584	
dual_issue_nums: WS0:0	WS1:0	WS2:0	WS3:0	
traffic_breakdown_coretomem[GLOBAL_ACC_R] = 129920 {8:16240,}
traffic_breakdown_coretomem[GLOBAL_ATOMIC] = 5120 {40:128,}
traffic_breakdown_memtocore[GLOBAL_ACC_R] = 649600 {40:16240,}
traffic_breakdown_memtocore[GLOBAL_ATOMIC] = 5120 {40:128,}
maxmflatency = 230 
max_icnt2mem_latency = 65 
maxmrqlatency = 0 
max_icnt2sh_latency = 9 
averagemflatency = 190 
avg_icnt2mem_latency = 26 
avg_icnt2sh_latency = 2 
mrq_lat_table:0 	0 	0 	0 	0 	0 	0 	0 	0 	0 	0 	0 	0 	0 	0 	0 	0 	0 	0 	0 	0 	0 	0 	0 	0 	0 	0 	0 	0 	0 	0 	0 	
dq_lat_table:0 	0 	0 	0 	0 	0 	0 	0 	0 	0 	0 	0 	0 	0 	0 	0 	0 	0 	0 	0 	0 	0 	0 	0 	0 	0 	0 	0 	0 	0 	0 	0 	
mf_lat_table:0 	0 	0 	0 	0 	0 	0 	16368 	0 	0 	0 	0 	0 	0 	0 	0 	0 	0 	0 	0 	0 	0 	0 	0 	0 	0 	0 	0 	0 	0 	0 	0 	
icnt2mem_lat_table:0 	77 	16 	19 	14349 	1901 	6 	0 	0 	0 	0 	0 	0 	0 	0 	0 	0 	0 	0 	0 	0 	0 	0 	0 	
icnt2sh_lat_table:0 	15715 	644 	9 	0 	0 	0 	0 	0 	0 	0 	0 	0 	0 	0 	0 	0 	0 	0 	0 	0 	0 	0 	0 	
mf_lat_pw_table:0 	0 	0 	0 	0 	0 	0 	4 	0 	0 	0 	0 	0 	0 	0 	0 	0 	0 	0 	0 	0 	0 	0 	0 	0 	0 	0 	0 	0 	0 	0 	0 	
maximum concurrent accesses to same row:
dram[0]:         0         0         0         0         0         0         0         0         0         0         0         0         0         0         0         0 
dram[1]:         0         0         0         0         0         0         0         0         0         0         0         0         0         0         0         0 
dram[2]:         0         0         0         0         0         0         0         0         0         0         0         0         0         0         0         0 
dram[3]:         0         0         0         0         0         0         0         0         0         0         0         0         0         0         0         0 
dram[4]:         0         0         0         0         0         0         0         0         0         0         0         0         0         0         0         0 
dram[5]:         0         0         0         0         0         0         0         0         0         0         0         0         0         0         0         0 
dram[6]:         0         0         0         0         0         0         0         0         0         0         0         0         0         0         0         0 
dram[7]:         0         0         0         0         0         0         0         0         0         0         0         0         0         0         0         0 
dram[8]:         0         0         0         0         0         0         0         0         0         0         0         0         0         0         0         0 
dram[9]:         0         0         0         0         0         0         0         0         0         0         0         0         0         0         0         0 
dram[10]:         0         0         0         0         0         0         0         0         0         0         0         0         0         0         0         0 
dram[11]:         0         0         0         0         0         0         0         0         0         0         0         0         0         0         0         0 
dram[12]:         0         0         0         0         0         0         0         0         0         0         0         0         0         0         0         0 
dram[13]:         0         0         0         0         0         0         0         0         0         0         0         0         0         0         0         0 
dram[14]:         0         0         0         0         0         0         0         0         0         0         0         0         0         0         0         0 
dram[15]:         0         0         0         0         0         0         0         0         0         0         0         0         0         0         0         0 
dram[16]:         0         0         0         0         0         0         0         0         0         0         0         0         0         0         0         0 
dram[17]:         0         0         0         0         0         0         0         0         0         0         0         0         0         0         0         0 
dram[18]:         0         0         0         0         0         0         0         0         0         0         0         0         0         0         0         0 
dram[19]:         0         0         0         0         0         0         0         0         0         0         0         0         0         0         0         0 
dram[20]:         0         0         0         0         0         0         0         0         0         0         0         0         0         0         0         0 
dram[21]:         0         0         0         0         0         0         0         0         0         0         0         0         0         0         0         0 
dram[22]:         0         0         0         0         0         0         0         0         0         0         0         0         0         0         0         0 
dram[23]:         0         0         0         0         0         0         0         0         0         0         0         0         0         0         0         0 
dram[24]:         0         0         0         0         0         0         0         0         0         0         0         0         0         0         0         0 
dram[25]:         0         0         0         0         0         0         0         0         0         0         0         0         0         0         0         0 
dram[26]:         0         0         0         0         0         0         0         0         0         0         0         0         0         0         0         0 
dram[27]:         0         0         0         0         0         0         0         0         0         0         0         0         0         0         0         0 
dram[28]:         0         0         0         0         0         0         0         0         0         0         0         0         0         0         0         0 
dram[29]:         0         0         0         0         0         0         0         0         0         0         0         0         0         0         0         0 
dram[30]:         0         0         0         0         0         0         0         0         0         0         0         0         0         0         0         0 
dram[31]:         0         0         0         0         0         0         0         0         0         0         0         0         0         0         0         0 
maximum service time to same row:
dram[0]:         0         0         0         0         0         0         0         0         0         0         0         0         0         0         0         0 
dram[1]:         0         0         0         0         0         0         0         0         0         0         0         0         0         0         0         0 
dram[2]:         0         0         0         0         0         0         0         0         0         0         0         0         0         0         0         0 
dram[3]:         0         0         0         0         0         0         0         0         0         0         0         0         0         0         0         0 
dram[4]:         0         0         0         0         0         0         0         0         0         0         0         0         0         0         0         0 
dram[5]:         0         0         0         0         0         0         0         0         0         0         0         0         0         0         0         0 
dram[6]:         0         0         0         0         0         0         0         0         0         0         0         0         0         0         0         0 
dram[7]:         0         0         0         0         0         0         0         0         0         0         0         0         0         0         0         0 
dram[8]:         0         0         0         0         0         0         0         0         0         0         0         0         0         0         0         0 
dram[9]:         0         0         0         0         0         0         0         0         0         0         0         0         0         0         0         0 
dram[10]:         0         0         0         0         0         0         0         0         0         0         0         0         0         0         0         0 
dram[11]:         0         0         0         0         0         0         0         0         0         0         0         0         0         0         0         0 
dram[12]:         0         0         0         0         0         0         0         0         0         0         0         0         0         0         0         0 
dram[13]:         0         0         0         0         0         0         0         0         0         0         0         0         0         0         0         0 
dram[14]:         0         0         0         0         0         0         0         0         0         0         0         0         0         0         0         0 
dram[15]:         0         0         0         0         0         0         0         0         0         0         0         0         0         0         0         0 
dram[16]:         0         0         0         0         0         0         0         0         0         0         0         0         0         0         0         0 
dram[17]:         0         0         0         0         0         0         0         0         0         0         0         0         0         0         0         0 
dram[18]:         0         0         0         0         0         0         0         0         0         0         0         0         0         0         0         0 
dram[19]:         0         0         0         0         0         0         0         0         0         0         0         0         0         0         0         0 
dram[20]:         0         0         0         0         0         0         0         0         0         0         0         0         0         0         0         0 
dram[21]:         0         0         0         0         0         0         0         0         0         0         0         0         0         0         0         0 
dram[22]:         0         0         0         0         0         0         0         0         0         0         0         0         0         0         0         0 
dram[23]:         0         0         0         0         0         0         0         0         0         0         0         0         0         0         0         0 
dram[24]:         0         0         0         0         0         0         0         0         0         0         0         0         0         0         0         0 
dram[25]:         0         0         0         0         0         0         0         0         0         0         0         0         0         0         0         0 
dram[26]:         0         0         0         0         0         0         0         0         0         0         0         0         0         0         0         0 
dram[27]:         0         0         0         0         0         0         0         0         0         0         0         0         0         0         0         0 
dram[28]:         0         0         0         0         0         0         0         0         0         0         0         0         0         0         0         0 
dram[29]:         0         0         0         0         0         0         0         0         0         0         0         0         0         0         0         0 
dram[30]:         0         0         0         0         0         0         0         0         0         0         0         0         0         0         0         0 
dram[31]:         0         0         0         0         0         0         0         0         0         0         0         0         0         0         0         0 
average row accesses per activate:
dram[0]:      -nan      -nan      -nan      -nan      -nan      -nan      -nan      -nan      -nan      -nan      -nan      -nan      -nan      -nan      -nan      -nan 
dram[1]:      -nan      -nan      -nan      -nan      -nan      -nan      -nan      -nan      -nan      -nan      -nan      -nan      -nan      -nan      -nan      -nan 
dram[2]:      -nan      -nan      -nan      -nan      -nan      -nan      -nan      -nan      -nan      -nan      -nan      -nan      -nan      -nan      -nan      -nan 
dram[3]:      -nan      -nan      -nan      -nan      -nan      -nan      -nan      -nan      -nan      -nan      -nan      -nan      -nan      -nan      -nan      -nan 
dram[4]:      -nan      -nan      -nan      -nan      -nan      -nan      -nan      -nan      -nan      -nan      -nan      -nan      -nan      -nan      -nan      -nan 
dram[5]:      -nan      -nan      -nan      -nan      -nan      -nan      -nan      -nan      -nan      -nan      -nan      -nan      -nan      -nan      -nan      -nan 
dram[6]:      -nan      -nan      -nan      -nan      -nan      -nan      -nan      -nan      -nan      -nan      -nan      -nan      -nan      -nan      -nan      -nan 
dram[7]:      -nan      -nan      -nan      -nan      -nan      -nan      -nan      -nan      -nan      -nan      -nan      -nan      -nan      -nan      -nan      -nan 
dram[8]:      -nan      -nan      -nan      -nan      -nan      -nan      -nan      -nan      -nan      -nan      -nan      -nan      -nan      -nan      -nan      -nan 
dram[9]:      -nan      -nan      -nan      -nan      -nan      -nan      -nan      -nan      -nan      -nan      -nan      -nan      -nan      -nan      -nan      -nan 
dram[10]:      -nan      -nan      -nan      -nan      -nan      -nan      -nan      -nan      -nan      -nan      -nan      -nan      -nan      -nan      -nan      -nan 
dram[11]:      -nan      -nan      -nan      -nan      -nan      -nan      -nan      -nan      -nan      -nan      -nan      -nan      -nan      -nan      -nan      -nan 
dram[12]:      -nan      -nan      -nan      -nan      -nan      -nan      -nan      -nan      -nan      -nan      -nan      -nan      -nan      -nan      -nan      -nan 
dram[13]:      -nan      -nan      -nan      -nan      -nan      -nan      -nan      -nan      -nan      -nan      -nan      -nan      -nan      -nan      -nan      -nan 
dram[14]:      -nan      -nan      -nan      -nan      -nan      -nan      -nan      -nan      -nan      -nan      -nan      -nan      -nan      -nan      -nan      -nan 
dram[15]:      -nan      -nan      -nan      -nan      -nan      -nan      -nan      -nan      -nan      -nan      -nan      -nan      -nan      -nan      -nan      -nan 
dram[16]:      -nan      -nan      -nan      -nan      -nan      -nan      -nan      -nan      -nan      -nan      -nan      -nan      -nan      -nan      -nan      -nan 
dram[17]:      -nan      -nan      -nan      -nan      -nan      -nan      -nan      -nan      -nan      -nan      -nan      -nan      -nan      -nan      -nan      -nan 
dram[18]:      -nan      -nan      -nan      -nan      -nan      -nan      -nan      -nan      -nan      -nan      -nan      -nan      -nan      -nan      -nan      -nan 
dram[19]:      -nan      -nan      -nan      -nan      -nan      -nan      -nan      -nan      -nan      -nan      -nan      -nan      -nan      -nan      -nan      -nan 
dram[20]:      -nan      -nan      -nan      -nan      -nan      -nan      -nan      -nan      -nan      -nan      -nan      -nan      -nan      -nan      -nan      -nan 
dram[21]:      -nan      -nan      -nan      -nan      -nan      -nan      -nan      -nan      -nan      -nan      -nan      -nan      -nan      -nan      -nan      -nan 
dram[22]:      -nan      -nan      -nan      -nan      -nan      -nan      -nan      -nan      -nan      -nan      -nan      -nan      -nan      -nan      -nan      -nan 
dram[23]:      -nan      -nan      -nan      -nan      -nan      -nan      -nan      -nan      -nan      -nan      -nan      -nan      -nan      -nan      -nan      -nan 
dram[24]:      -nan      -nan      -nan      -nan      -nan      -nan      -nan      -nan      -nan      -nan      -nan      -nan      -nan      -nan      -nan      -nan 
dram[25]:      -nan      -nan      -nan      -nan      -nan      -nan      -nan      -nan      -nan      -nan      -nan      -nan      -nan      -nan      -nan      -nan 
dram[26]:      -nan      -nan      -nan      -nan      -nan      -nan      -nan      -nan      -nan      -nan      -nan      -nan      -nan      -nan      -nan      -nan 
dram[27]:      -nan      -nan      -nan      -nan      -nan      -nan      -nan      -nan      -nan      -nan      -nan      -nan      -nan      -nan      -nan      -nan 
dram[28]:      -nan      -nan      -nan      -nan      -nan      -nan      -nan      -nan      -nan      -nan      -nan      -nan      -nan      -nan      -nan      -nan 
dram[29]:      -nan      -nan      -nan      -nan      -nan      -nan      -nan      -nan      -nan      -nan      -nan      -nan      -nan      -nan      -nan      -nan 
dram[30]:      -nan      -nan      -nan      -nan      -nan      -nan      -nan      -nan      -nan      -nan      -nan      -nan      -nan      -nan      -nan      -nan 
dram[31]:      -nan      -nan      -nan      -nan      -nan      -nan      -nan      -nan      -nan      -nan      -nan      -nan      -nan      -nan      -nan      -nan 
average row locality = 0/0 = -nan
number of total memory accesses made:
dram[0]:         0         0         0         0         0         0         0         0         0         0         0         0         0         0         0         0 
dram[1]:         0         0         0         0         0         0         0         0         0         0         0         0         0         0         0         0 
dram[2]:         0         0         0         0         0         0         0         0         0         0         0         0         0         0         0         0 
dram[3]:         0         0         0         0         0         0         0         0         0         0         0         0         0         0         0         0 
dram[4]:         0         0         0         0         0         0         0         0         0         0         0         0         0         0         0         0 
dram[5]:         0         0         0         0         0         0         0         0         0         0         0         0         0         0         0         0 
dram[6]:         0         0         0         0         0         0         0         0         0         0         0         0         0         0         0         0 
dram[7]:         0         0         0         0         0         0         0         0         0         0         0         0         0         0         0         0 
dram[8]:         0         0         0         0         0         0         0         0         0         0         0         0         0         0         0         0 
dram[9]:         0         0         0         0         0         0         0         0         0         0         0         0         0         0         0         0 
dram[10]:         0         0         0         0         0         0         0         0         0         0         0         0         0         0         0         0 
dram[11]:         0         0         0         0         0         0         0         0         0         0         0         0         0         0         0         0 
dram[12]:         0         0         0         0         0         0         0         0         0         0         0         0         0         0         0         0 
dram[13]:         0         0         0         0         0         0         0         0         0         0         0         0         0         0         0         0 
dram[14]:         0         0         0         0         0         0         0         0         0         0         0         0         0         0         0         0 
dram[15]:         0         0         0         0         0         0         0         0         0         0         0         0         0         0         0         0 
[...]
GrpLevelPara = 2.150978 

BW Util details:
bwutil = 0.184617 
total_CMD = 46973 
util_bw = 8672 
Wasted_Col = 6260 
Wasted_Row = 1044 
Idle = 30997 

BW Util Bottlenecks: 
RCDc_limit = 3112 
RCDWRc_limit = 1444 
WTRc_limit = 1587 
RTWc_limit = 7046 
CCDLc_limit = 4563 
rwq = 0 
CCDLc_limit_alone = 3611 
WTRc_limit_alone = 1369 
RTWc_limit_alone = 6312 

Commands details: 
total_CMD = 46973 
n_nop = 37418 
Read = 6312 
Write = 0 
L2_Alloc = 0 
L2_WB = 2360 
n_act = 880 
n_pre = 864 
n_ref = 0 
n_req = 6902 
total_req = 8672 

Dual Bus Interface Util: 
issued_total_row = 1744 
issued_total_col = 8672 
Row_Bus_Util =  0.037128 
CoL_Bus_Util = 0.184617 
Either_Row_CoL_Bus_Util = 0.203415 
Issued_on_Two_Bus_Simul_Util = 0.018330 
issued_two_Eff = 0.090110 
queue_avg = 4.171928 


dram_util_bins: 0 0 0 0 0 0 0 0 0 0
dram_eff_bins: 0 0 0 0 0 0 0 0 0 0
mrqq: max=64 avg=4.17193
Memory Partition 28: 
Cache L2_bank_056:

Cache L2_bank_057:

In Dram Latency Queue (total = 0): 
DRAM[28]: 16 bks, busW=16 BL=2 CL=12, tRRD=3 tCCD=1, tRCD=12 tRAS=28 tRP=12 tRC=40
n_cmd=46973 n_nop=37408 n_act=894 n_pre=878 n_ref_event=0 n_req=6908 n_rd=6312 n_rd_L2_A=0 n_write=0 n_wr_bk=2384 bw_util=0.1851
n_activity=16969 dram_eff=0.5125
bk0: 384a 43461i bk1: 384a 43268i bk2: 384a 44115i bk3: 384a 44166i bk4: 344a 43924i bk5: 336a 43464i bk6: 320a 43942i bk7: 320a 43975i bk8: 408a 43206i bk9: 424a 43654i bk10: 448a 43332i bk11: 448a 43029i bk12: 448a 43388i bk13: 448a 43507i bk14: 424a 43665i bk15: 408a 43995i 

------------------------------------------------------------------------

Row_Buffer_Locality = 0.870585
Row_Buffer_Locality_read = 0.912864
Row_Buffer_Locality_write = 0.422819
Bank_Level_Parallism = 3.803300
Bank_Level_Parallism_Col = 3.082857
Bank_Level_Parallism_Ready = 1.602461
write_to_read_ratio_blp_rw_average = 0.418735
GrpLevelPara = 2.162109 

BW Util details:
bwutil = 0.185128 
total_CMD = 46973 
util_bw = 8696 
Wasted_Col = 6113 
Wasted_Row = 1068 
Idle = 31096 

BW Util Bottlenecks: 
RCDc_limit = 3061 
RCDWRc_limit = 1517 
WTRc_limit = 1455 
RTWc_limit = 6184 
CCDLc_limit = 4116 
rwq = 0 
CCDLc_limit_alone = 3403 
WTRc_limit_alone = 1258 
RTWc_limit_alone = 5668 

Commands details: 
total_CMD = 46973 
n_nop = 37408 
Read = 6312 
Write = 0 
L2_Alloc = 0 
L2_WB = 2384 
n_act = 894 
n_pre = 878 
n_ref = 0 
n_req = 6908 
total_req = 8696 

Dual Bus Interface Util: 
issued_total_row = 1772 
issued_total_col = 8696 
Row_Bus_Util =  0.037724 
CoL_Bus_Util = 0.185128 
Either_Row_CoL_Bus_Util = 0.203628 
Issued_on_Two_Bus_Simul_Util = 0.019224 
issued_two_Eff = 0.094407 
queue_avg = 3.927171 


dram_util_bins: 0 0 0 0 0 0 0 0 0 0
dram_eff_bins: 0 0 0 0 0 0 0 0 0 0
mrqq: max=64 avg=3.92717
Memory Partition 29: 
Cache L2_bank_058:

Cache L2_bank_059:

In Dram Latency Queue (total = 0): 
DRAM[29]: 16 bks, busW=16 BL=2 CL=12, tRRD=3 tCCD=1, tRCD=12 tRAS=28 tRP=12 tRC=40
n_cmd=46973 n_nop=37419 n_act=863 n_pre=847 n_ref_event=0 n_req=6905 n_rd=6312 n_rd_L2_A=0 n_write=0 n_wr_bk=2372 bw_util=0.1849
n_activity=16987 dram_eff=0.5112
bk0: 384a 43717i bk1: 384a 43163i bk2: 384a 44014i bk3: 384a 43416i bk4: 344a 43769i bk5: 336a 43613i bk6: 320a 43870i bk7: 320a 43716i bk8: 408a 43700i bk9: 424a 43851i bk10: 448a 43754i bk11: 448a 43804i bk12: 448a 43801i bk13: 448a 43451i bk14: 424a 43947i bk15: 408a 44114i 

------------------------------------------------------------------------

Row_Buffer_Locality = 0.875018
Row_Buffer_Locality_read = 0.917142
Row_Buffer_Locality_write = 0.426644
Bank_Level_Parallism = 3.681135
Bank_Level_Parallism_Col = 2.998838
Bank_Level_Parallism_Ready = 1.547098
write_to_read_ratio_blp_rw_average = 0.415294
GrpLevelPara = 2.116220 

BW Util details:
bwutil = 0.184872 
total_CMD = 46973 
util_bw = 8684 
Wasted_Col = 6068 
Wasted_Row = 1214 
Idle = 31007 

BW Util Bottlenecks: 
RCDc_limit = 2890 
RCDWRc_limit = 1482 
WTRc_limit = 1349 
RTWc_limit = 5918 
CCDLc_limit = 4465 
rwq = 0 
CCDLc_limit_alone = 3508 
WTRc_limit_alone = 1154 
RTWc_limit_alone = 5156 

Commands details: 
total_CMD = 46973 
n_nop = 37419 
Read = 6312 
Write = 0 
L2_Alloc = 0 
L2_WB = 2372 
n_act = 863 
n_pre = 847 
n_ref = 0 
n_req = 6905 
total_req = 8684 

Dual Bus Interface Util: 
issued_total_row = 1710 
issued_total_col = 8684 
Row_Bus_Util =  0.036404 
CoL_Bus_Util = 0.184872 
Either_Row_CoL_Bus_Util = 0.203393 
Issued_on_Two_Bus_Simul_Util = 0.017883 
issued_two_Eff = 0.087921 
queue_avg = 4.002746 


dram_util_bins: 0 0 0 0 0 0 0 0 0 0
dram_eff_bins: 0 0 0 0 0 0 0 0 0 0
mrqq: max=64 avg=4.00275
Memory Partition 30: 
Cache L2_bank_060:

Cache L2_bank_061:

In Dram Latency Queue (total = 0): 
DRAM[30]: 16 bks, busW=16 BL=2 CL=12, tRRD=3 tCCD=1, tRCD=12 tRAS=28 tRP=12 tRC=40
n_cmd=46973 n_nop=37399 n_act=873 n_pre=857 n_ref_event=0 n_req=6906 n_rd=6312 n_rd_L2_A=0 n_write=0 n_wr_bk=2376 bw_util=0.185
n_activity=16921 dram_eff=0.5134
bk0: 384a 43609i bk1: 384a 43487i bk2: 384a 43514i bk3: 384a 43884i bk4: 344a 43620i bk5: 336a 43482i bk6: 320a 44047i bk7: 320a 43900i bk8: 408a 43715i bk9: 424a 43837i bk10: 448a 43678i bk11: 448a 43773i bk12: 448a 43195i bk13: 448a 43602i bk14: 424a 43073i bk15: 408a 43985i 

------------------------------------------------------------------------

Row_Buffer_Locality = 0.873588
Row_Buffer_Locality_read = 0.913340
Row_Buffer_Locality_write = 0.451178
Bank_Level_Parallism = 3.750577
Bank_Level_Parallism_Col = 3.024997
Bank_Level_Parallism_Ready = 1.559968
write_to_read_ratio_blp_rw_average = 0.422008
GrpLevelPara = 2.167940 

BW Util details:
bwutil = 0.184957 
total_CMD = 46973 
util_bw = 8688 
Wasted_Col = 6332 
Wasted_Row = 997 
Idle = 30956 

BW Util Bottlenecks: 
RCDc_limit = 2952 
RCDWRc_limit = 1582 
WTRc_limit = 1642 
RTWc_limit = 6972 
CCDLc_limit = 4559 
rwq = 0 
CCDLc_limit_alone = 3556 
WTRc_limit_alone = 1384 
RTWc_limit_alone = 6227 

Commands details: 
total_CMD = 46973 
n_nop = 37399 
Read = 6312 
Write = 0 
L2_Alloc = 0 
L2_WB = 2376 
n_act = 873 
n_pre = 857 
n_ref = 0 
n_req = 6906 
total_req = 8688 

Dual Bus Interface Util: 
issued_total_row = 1730 
issued_total_col = 8688 
Row_Bus_Util =  0.036830 
CoL_Bus_Util = 0.184957 
Either_Row_CoL_Bus_Util = 0.203819 
Issued_on_Two_Bus_Simul_Util = 0.017968 
issued_two_Eff = 0.088155 
queue_avg = 4.403210 


dram_util_bins: 0 0 0 0 0 0 0 0 0 0
dram_eff_bins: 0 0 0 0 0 0 0 0 0 0
mrqq: max=64 avg=4.40321
Memory Partition 31: 
Cache L2_bank_062:

Cache L2_bank_063:

In Dram Latency Queue (total = 0): 
DRAM[31]: 16 bks, busW=16 BL=2 CL=12, tRRD=3 tCCD=1, tRCD=12 tRAS=28 tRP=12 tRC=40
n_cmd=46973 n_nop=37390 n_act=888 n_pre=872 n_ref_event=0 n_req=6911 n_rd=6312 n_rd_L2_A=0 n_write=0 n_wr_bk=2396 bw_util=0.1854
n_activity=17225 dram_eff=0.5055
bk0: 384a 43944i bk1: 384a 43359i bk2: 384a 43688i bk3: 384a 43948i bk4: 344a 43641i bk5: 336a 43062i bk6: 320a 44387i bk7: 320a 43775i bk8: 408a 43403i bk9: 424a 43495i bk10: 448a 43717i bk11: 448a 43527i bk12: 448a 43089i bk13: 448a 43179i bk14: 424a 43360i bk15: 408a 44395i 

------------------------------------------------------------------------

Row_Buffer_Locality = 0.871509
Row_Buffer_Locality_read = 0.913340
Row_Buffer_Locality_write = 0.430718
Bank_Level_Parallism = 3.730809
Bank_Level_Parallism_Col = 3.063974
Bank_Level_Parallism_Ready = 1.555466
write_to_read_ratio_blp_rw_average = 0.425103
GrpLevelPara = 2.165327 

BW Util details:
bwutil = 0.185383 
total_CMD = 46973 
util_bw = 8708 
Wasted_Col = 6338 
Wasted_Row = 1173 
Idle = 30754 

BW Util Bottlenecks: 
RCDc_limit = 3135 
RCDWRc_limit = 1547 
WTRc_limit = 1461 
RTWc_limit = 6765 
CCDLc_limit = 4598 
rwq = 0 
CCDLc_limit_alone = 3690 
WTRc_limit_alone = 1272 
RTWc_limit_alone = 6046 

Commands details: 
total_CMD = 46973 
n_nop = 37390 
Read = 6312 
Write = 0 
L2_Alloc = 0 
L2_WB = 2396 
n_act = 888 
n_pre = 872 
n_ref = 0 
n_req = 6911 
total_req = 8708 

Dual Bus Interface Util: 
issued_total_row = 1760 
issued_total_col = 8708 
Row_Bus_Util =  0.037468 
CoL_Bus_Util = 0.185383 
Either_Row_CoL_Bus_Util = 0.204011 
Issued_on_Two_Bus_Simul_Util = 0.018841 
issued_two_Eff = 0.092351 
queue_avg = 4.182083 


dram_util_bins: 0 0 0 0 0 0 0 0 0 0
dram_eff_bins: 0 0 0 0 0 0 0 0 0 0
mrqq: max=64 avg=4.18208

========= L2 cache stats =========
L2_cache_bank[0]: Access = 6351, Miss = 6086, Miss_rate = 0.958, Pending_hits = 0, Reservation_fails = 0
L2_cache_bank[1]: Access = 6329, Miss = 6087, Miss_rate = 0.962, Pending_hits = 0, Reservation_fails = 0
L2_cache_bank[2]: Access = 6346, Miss = 6087, Miss_rate = 0.959, Pending_hits = 0, Reservation_fails = 0
L2_cache_bank[3]: Access = 6337, Miss = 6088, Miss_rate = 0.961, Pending_hits = 0, Reservation_fails = 0
L2_cache_bank[4]: Access = 6353, Miss = 6088, Miss_rate = 0.958, Pending_hits = 0, Reservation_fails = 0
L2_cache_bank[5]: Access = 6331, Miss = 6088, Miss_rate = 0.962, Pending_hits = 0, Reservation_fails = 0
L2_cache_bank[6]: Access = 6352, Miss = 6088, Miss_rate = 0.958, Pending_hits = 0, Reservation_fails = 0
L2_cache_bank[7]: Access = 6331, Miss = 6089, Miss_rate = 0.962, Pending_hits = 0, Reservation_fails = 0
L2_cache_bank[8]: Access = 6348, Miss = 6089, Miss_rate = 0.959, Pending_hits = 0, Reservation_fails = 0
L2_cache_bank[9]: Access = 6337, Miss = 6088, Miss_rate = 0.961, Pending_hits = 0, Reservation_fails = 0
L2_cache_bank[10]: Access = 6353, Miss = 6088, Miss_rate = 0.958, Pending_hits = 0, Reservation_fails = 0
L2_cache_bank[11]: Access = 6331, Miss = 6088, Miss_rate = 0.962, Pending_hits = 0, Reservation_fails = 0
L2_cache_bank[12]: Access = 6353, Miss = 6088, Miss_rate = 0.958, Pending_hits = 0, Reservation_fails = 0
L2_cache_bank[13]: Access = 6332, Miss = 6089, Miss_rate = 0.962, Pending_hits = 0, Reservation_fails = 0
L2_cache_bank[14]: Access = 6347, Miss = 6089, Miss_rate = 0.959, Pending_hits = 0, Reservation_fails = 0
L2_cache_bank[15]: Access = 6336, Miss = 6088, Miss_rate = 0.961, Pending_hits = 0, Reservation_fails = 0
L2_cache_bank[16]: Access = 6353, Miss = 6088, Miss_rate = 0.958, Pending_hits = 0, Reservation_fails = 0
L2_cache_bank[17]: Access = 6331, Miss = 6088, Miss_rate = 0.962, Pending_hits = 0, Reservation_fails = 0
L2_cache_bank[18]: Access = 6353, Miss = 6088, Miss_rate = 0.958, Pending_hits = 0, Reservation_fails = 0
L2_cache_bank[19]: Access = 6332, Miss = 6088, Miss_rate = 0.961, Pending_hits = 0, Reservation_fails = 0
L2_cache_bank[20]: Access = 6347, Miss = 6088, Miss_rate = 0.959, Pending_hits = 0, Reservation_fails = 0
L2_cache_bank[21]: Access = 6335, Miss = 6088, Miss_rate = 0.961, Pending_hits = 0, Reservation_fails = 0
L2_cache_bank[22]: Access = 6352, Miss = 6088, Miss_rate = 0.958, Pending_hits = 0, Reservation_fails = 0
L2_cache_bank[23]: Access = 6331, Miss = 6088, Miss_rate = 0.962, Pending_hits = 0, Reservation_fails = 0
L2_cache_bank[24]: Access = 6353, Miss = 6088, Miss_rate = 0.958, Pending_hits = 0, Reservation_fails = 0
L2_cache_bank[25]: Access = 6334, Miss = 6089, Miss_rate = 0.961, Pending_hits = 0, Reservation_fails = 0
L2_cache_bank[26]: Access = 6349, Miss = 6089, Miss_rate = 0.959, Pending_hits = 0, Reservation_fails = 0
L2_cache_bank[27]: Access = 6335, Miss = 6088, Miss_rate = 0.961, Pending_hits = 0, Reservation_fails = 0
L2_cache_bank[28]: Access = 6351, Miss = 6088, Miss_rate = 0.959, Pending_hits = 0, Reservation_fails = 0
L2_cache_bank[29]: Access = 6331, Miss = 6088, Miss_rate = 0.962, Pending_hits = 0, Reservation_fails = 0
L2_cache_bank[30]: Access = 6352, Miss = 6088, Miss_rate = 0.958, Pending_hits = 0, Reservation_fails = 0
L2_cache_bank[31]: Access = 6333, Miss = 6088, Miss_rate = 0.961, Pending_hits = 0, Reservation_fails = 0
L2_cache_bank[32]: Access = 6350, Miss = 6088, Miss_rate = 0.959, Pending_hits = 0, Reservation_fails = 0
L2_cache_bank[33]: Access = 6335, Miss = 6089, Miss_rate = 0.961, Pending_hits = 0, Reservation_fails = 0
L2_cache_bank[34]: Access = 6351, Miss = 6089, Miss_rate = 0.959, Pending_hits = 0, Reservation_fails = 0
L2_cache_bank[35]: Access = 6332, Miss = 6088, Miss_rate = 0.961, Pending_hits = 0, Reservation_fails = 0
L2_cache_bank[36]: Access = 6352, Miss = 6088, Miss_rate = 0.958, Pending_hits = 0, Reservation_fails = 0
L2_cache_bank[37]: Access = 6333, Miss = 6088, Miss_rate = 0.961, Pending_hits = 0, Reservation_fails = 0
L2_cache_bank[38]: Access = 6351, Miss = 6088, Miss_rate = 0.959, Pending_hits = 0, Reservation_fails = 0
L2_cache_bank[39]: Access = 6322, Miss = 6078, Miss_rate = 0.961, Pending_hits = 0, Reservation_fails = 0
L2_cache_bank[40]: Access = 6348, Miss = 6086, Miss_rate = 0.959, Pending_hits = 0, Reservation_fails = 0
L2_cache_bank[41]: Access = 6323, Miss = 6077, Miss_rate = 0.961, Pending_hits = 0, Reservation_fails = 0
L2_cache_bank[42]: Access = 6349, Miss = 6085, Miss_rate = 0.958, Pending_hits = 0, Reservation_fails = 0
L2_cache_bank[43]: Access = 6321, Miss = 6076, Miss_rate = 0.961, Pending_hits = 0, Reservation_fails = 0
L2_cache_bank[44]: Access = 6348, Miss = 6084, Miss_rate = 0.958, Pending_hits = 0, Reservation_fails = 0
L2_cache_bank[45]: Access = 6318, Miss = 6075, Miss_rate = 0.962, Pending_hits = 0, Reservation_fails = 0
L2_cache_bank[46]: Access = 6343, Miss = 6083, Miss_rate = 0.959, Pending_hits = 0, Reservation_fails = 0
L2_cache_bank[47]: Access = 6321, Miss = 6074, Miss_rate = 0.961, Pending_hits = 0, Reservation_fails = 0
L2_cache_bank[48]: Access = 6347, Miss = 6082, Miss_rate = 0.958, Pending_hits = 0, Reservation_fails = 0
L2_cache_bank[49]: Access = 6317, Miss = 6072, Miss_rate = 0.961, Pending_hits = 0, Reservation_fails = 0
L2_cache_bank[50]: Access = 6345, Miss = 6080, Miss_rate = 0.958, Pending_hits = 0, Reservation_fails = 0
L2_cache_bank[51]: Access = 6434, Miss = 6064, Miss_rate = 0.942, Pending_hits = 0, Reservation_fails = 0
L2_cache_bank[52]: Access = 6339, Miss = 6080, Miss_rate = 0.959, Pending_hits = 0, Reservation_fails = 0
L2_cache_bank[53]: Access = 6320, Miss = 6072, Miss_rate = 0.961, Pending_hits = 0, Reservation_fails = 0
L2_cache_bank[54]: Access = 6344, Miss = 6081, Miss_rate = 0.959, Pending_hits = 0, Reservation_fails = 0
L2_cache_bank[55]: Access = 6316, Miss = 6072, Miss_rate = 0.961, Pending_hits = 0, Reservation_fails = 0
L2_cache_bank[56]: Access = 6338, Miss = 6082, Miss_rate = 0.960, Pending_hits = 0, Reservation_fails = 0
L2_cache_bank[57]: Access = 6323, Miss = 6073, Miss_rate = 0.960, Pending_hits = 0, Reservation_fails = 0
L2_cache_bank[58]: Access = 6335, Miss = 6084, Miss_rate = 0.960, Pending_hits = 0, Reservation_fails = 0
L2_cache_bank[59]: Access = 6331, Miss = 6074, Miss_rate = 0.959, Pending_hits = 0, Reservation_fails = 0
L2_cache_bank[60]: Access = 6340, Miss = 6084, Miss_rate = 0.960, Pending_hits = 0, Reservation_fails = 0
L2_cache_bank[61]: Access = 6327, Miss = 6076, Miss_rate = 0.960, Pending_hits = 0, Reservation_fails = 0
L2_cache_bank[62]: Access = 6335, Miss = 6086, Miss_rate = 0.961, Pending_hits = 0, Reservation_fails = 0
L2_cache_bank[63]: Access = 6333, Miss = 6076, Miss_rate = 0.959, Pending_hits = 0, Reservation_fails = 0
L2_total_cache_accesses = 405760
L2_total_cache_misses = 389392
L2_total_cache_miss_rate = 0.9597
L2_total_cache_pending_hits = 0
L2_total_cache_reservation_fails = 0
L2_total_cache_breakdown:
	L2_cache_stats_breakdown[GLOBAL_ACC_R][HIT] = 16368
	L2_cache_stats_breakdown[GLOBAL_ACC_R][HIT_RESERVED] = 0
	L2_cache_stats_breakdown[GLOBAL_ACC_R][MISS] = 50546
	L2_cache_stats_breakdown[GLOBAL_ACC_R][RESERVATION_FAIL] = 0
	L2_cache_stats_breakdown[GLOBAL_ACC_R][SECTOR_MISS] = 151638
	L2_cache_stats_breakdown[LOCAL_ACC_R][HIT] = 0
	L2_cache_stats_breakdown[LOCAL_ACC_R][HIT_RESERVED] = 0
	L2_cache_stats_breakdown[LOCAL_ACC_R][MISS] = 0
	L2_cache_stats_breakdown[LOCAL_ACC_R][RESERVATION_FAIL] = 0
	L2_cache_stats_breakdown[LOCAL_ACC_R][SECTOR_MISS] = 0
	L2_cache_stats_breakdown[CONST_ACC_R][HIT] = 0
	L2_cache_stats_breakdown[CONST_ACC_R][HIT_RESERVED] = 0
	L2_cache_stats_breakdown[CONST_ACC_R][MISS] = 0
	L2_cache_stats_breakdown[CONST_ACC_R][RESERVATION_FAIL] = 0
	L2_cache_stats_breakdown[CONST_ACC_R][SECTOR_MISS] = 0
	L2_cache_stats_breakdown[TEXTURE_ACC_R][HIT] = 0
	L2_cache_stats_breakdown[TEXTURE_ACC_R][HIT_RESERVED] = 0
	L2_cache_stats_breakdown[TEXTURE_ACC_R][MISS] = 0
	L2_cache_stats_breakdown[TEXTURE_ACC_R][RESERVATION_FAIL] = 0
	L2_cache_stats_breakdown[TEXTURE_ACC_R][SECTOR_MISS] = 0
	L2_cache_stats_breakdown[GLOBAL_ACC_W][HIT] = 0
	L2_cache_stats_breakdown[GLOBAL_ACC_W][HIT_RESERVED] = 0
	L2_cache_stats_breakdown[GLOBAL_ACC_W][MISS] = 40562
	L2_cache_stats_breakdown[GLOBAL_ACC_W][RESERVATION_FAIL] = 0
	L2_cache_stats_breakdown[GLOBAL_ACC_W][SECTOR_MISS] = 146646
	L2_cache_stats_breakdown[LOCAL_ACC_W][HIT] = 0
	L2_cache_stats_breakdown[LOCAL_ACC_W][HIT_RESERVED] = 0
	L2_cache_stats_breakdown[LOCAL_ACC_W][MISS] = 0
	L2_cache_stats_breakdown[LOCAL_ACC_W][RESERVATION_FAIL] = 0
	L2_cache_stats_breakdown[LOCAL_ACC_W][SECTOR_MISS] = 0
	L2_cache_stats_breakdown[L1_WRBK_ACC][HIT] = 0
	L2_cache_stats_breakdown[L1_WRBK_ACC][HIT_RESERVED] = 0
	L2_cache_stats_breakdown[L1_WRBK_ACC][MISS] = 0
	L2_cache_stats_breakdown[L1_WRBK_ACC][RESERVATION_FAIL] = 0
	L2_cache_stats_breakdown[L1_WRBK_ACC][SECTOR_MISS] = 0
	L2_cache_stats_breakdown[L2_WRBK_ACC][HIT] = 0
	L2_cache_stats_breakdown[L2_WRBK_ACC][HIT_RESERVED] = 0
	L2_cache_stats_breakdown[L2_WRBK_ACC][MISS] = 0
	L2_cache_stats_breakdown[L2_WRBK_ACC][RESERVATION_FAIL] = 0
	L2_cache_stats_breakdown[L2_WRBK_ACC][SECTOR_MISS] = 0
	L2_cache_stats_breakdown[INST_ACC_R][HIT] = 0
	L2_cache_stats_breakdown[INST_ACC_R][HIT_RESERVED] = 0
	L2_cache_stats_breakdown[INST_ACC_R][MISS] = 0
	L2_cache_stats_breakdown[INST_ACC_R][RESERVATION_FAIL] = 0
	L2_cache_stats_breakdown[INST_ACC_R][SECTOR_MISS] = 0
	L2_cache_stats_breakdown[L1_WR_ALLOC_R][HIT] = 0
	L2_cache_stats_breakdown[L1_WR_ALLOC_R][HIT_RESERVED] = 0
	L2_cache_stats_breakdown[L1_WR_ALLOC_R][MISS] = 0
	L2_cache_stats_breakdown[L1_WR_ALLOC_R][RESERVATION_FAIL] = 0
	L2_cache_stats_breakdown[L1_WR_ALLOC_R][SECTOR_MISS] = 0
	L2_cache_stats_breakdown[L2_WR_ALLOC_R][HIT] = 0
	L2_cache_stats_breakdown[L2_WR_ALLOC_R][HIT_RESERVED] = 0
	L2_cache_stats_breakdown[L2_WR_ALLOC_R][MISS] = 0
	L2_cache_stats_breakdown[L2_WR_ALLOC_R][RESERVATION_FAIL] = 0
	L2_cache_stats_breakdown[L2_WR_ALLOC_R][SECTOR_MISS] = 0
	L2_cache_stats_breakdown[GLOBAL_ACC_R][TOTAL_ACCESS] = 218552
	L2_cache_stats_breakdown[GLOBAL_ACC_W][TOTAL_ACCESS] = 187208
L2_total_cache_reservation_fail_breakdown:
L2_cache_data_port_util = 0.012
L2_cache_fill_port_util = 0.050

icnt_total_pkts_mem_to_simt=405760
icnt_total_pkts_simt_to_mem=405760
LD_mem_lat_dist  0 0 0 0 0 0 0 0 0 0 0 0 0 0 0 0 0 0 0 0 0 0 0 0 0 0 0
ST_mem_lat_dist  0 0 0 0 0 0 0 0 0 0 0 0 0 0 0 0 0 0 0 0 0 0 0 0 0 0 0
----------------------------Interconnect-DETAILS--------------------------------
Req_Network_injected_packets_num = 405760
Req_Network_cycles = 62559
Req_Network_injected_packets_per_cycle =       6.4860 
Req_Network_conflicts_per_cycle =       3.0209
Req_Network_conflicts_per_cycle_util =       7.1621
Req_Bank_Level_Parallism =      15.3773
Req_Network_in_buffer_full_per_cycle =       0.0000
Req_Network_in_buffer_avg_util =       0.9372
Req_Network_out_buffer_full_per_cycle =       0.0000
Req_Network_out_buffer_avg_util =       0.1013

Reply_Network_injected_packets_num = 405760
Reply_Network_cycles = 62559
Reply_Network_injected_packets_per_cycle =        6.4860
Reply_Network_conflicts_per_cycle =        2.1897
Reply_Network_conflicts_per_cycle_util =       5.1085
Reply_Bank_Level_Parallism =      15.1318
Reply_Network_in_buffer_full_per_cycle =       0.0000
Reply_Network_in_buffer_avg_util =       0.1453
Reply_Network_out_buffer_full_per_cycle =       0.0000
Reply_Network_out_buffer_avg_util =       0.0811
----------------------------END-of-Interconnect-DETAILS-------------------------


gpgpu_simulation_time = 0 days, 0 hrs, 3 min, 37 sec (217 sec)
gpgpu_simulation_rate = 144645 (inst/sec)
gpgpu_simulation_rate = 288 (cycle/sec)
gpgpu_silicon_slowdown = 3930555x
