

        *** GPGPU-Sim Simulator Version 4.0.0  [build gpgpu-sim_git-commit-_modified_0.0] ***


GPGPU-Sim PTX: simulation mode 0 (can change with PTX_SIM_MODE_FUNC environment variable:
               1=functional simulation only, 0=detailed performance simulator)
GPGPU-Sim PTX: overriding embedded ptx with ptx file (PTX_SIM_USE_PTX_FILE is set)
GPGPU-Sim: Configuration options:

-save_embedded_ptx                      0 # saves ptx files embedded in binary as <n>.ptx
-keep                                   0 # keep intermediate files created by GPGPU-Sim when interfacing with external programs
-gpgpu_ptx_save_converted_ptxplus                    0 # Saved converted ptxplus to a file
-gpgpu_occupancy_sm_number                   70 # The SM number to pass to ptxas when getting register usage for computing GPU occupancy. This parameter is required in the config.
-ptx_opcode_latency_int      4,13,4,5,145,21 # Opcode latencies for integers <ADD,MAX,MUL,MAD,DIV,SHFL>Default 1,1,19,25,145,32
-ptx_opcode_latency_fp          4,13,4,5,39 # Opcode latencies for single precision floating points <ADD,MAX,MUL,MAD,DIV>Default 1,1,1,1,30
-ptx_opcode_latency_dp         8,19,8,8,330 # Opcode latencies for double precision floating points <ADD,MAX,MUL,MAD,DIV>Default 8,8,8,8,335
-ptx_opcode_latency_sfu                  100 # Opcode latencies for SFU instructionsDefault 8
-ptx_opcode_latency_tesnor                   64 # Opcode latencies for Tensor instructionsDefault 64
-ptx_opcode_initiation_int          2,2,2,2,8,4 # Opcode initiation intervals for integers <ADD,MAX,MUL,MAD,DIV,SHFL>Default 1,1,4,4,32,4
-ptx_opcode_initiation_fp            2,2,2,2,4 # Opcode initiation intervals for single precision floating points <ADD,MAX,MUL,MAD,DIV>Default 1,1,1,1,5
-ptx_opcode_initiation_dp          4,4,4,4,130 # Opcode initiation intervals for double precision floating points <ADD,MAX,MUL,MAD,DIV>Default 8,8,8,8,130
-ptx_opcode_initiation_sfu                    8 # Opcode initiation intervals for sfu instructionsDefault 8
-ptx_opcode_initiation_tensor                   64 # Opcode initiation intervals for tensor instructionsDefault 64
-cdp_latency         7200,8000,100,12000,1600 # CDP API latency <cudaStreamCreateWithFlags, cudaGetParameterBufferV2_init_perWarp, cudaGetParameterBufferV2_perKernel, cudaLaunchDeviceV2_init_perWarp, cudaLaunchDevicV2_perKernel>Default 7200,8000,100,12000,1600
-network_mode                           2 # Interconnection network mode
-inter_config_file                   mesh # Interconnection network config file
-icnt_in_buffer_limit                  512 # in_buffer_limit
-icnt_out_buffer_limit                  512 # out_buffer_limit
-icnt_subnets                           2 # subnets
-icnt_arbiter_algo                      1 # arbiter_algo
-icnt_verbose                           0 # inct_verbose
-icnt_grant_cycles                      1 # grant_cycles
-gpgpu_ptx_use_cuobjdump                    1 # Use cuobjdump to extract ptx and sass from binaries
-gpgpu_experimental_lib_support                    0 # Try to extract code from cuda libraries [Broken because of unknown cudaGetExportTable]
-checkpoint_option                      0 #  checkpointing flag (0 = no checkpoint)
-checkpoint_kernel                      1 #  checkpointing during execution of which kernel (1- 1st kernel)
-checkpoint_CTA                         0 #  checkpointing after # of CTA (< less than total CTA)
-resume_option                          0 #  resume flag (0 = no resume)
-resume_kernel                          0 #  Resume from which kernel (1= 1st kernel)
-resume_CTA                             0 #  resume from which CTA 
-checkpoint_CTA_t                       0 #  resume from which CTA 
-checkpoint_insn_Y                      0 #  resume from which CTA 
-gpgpu_ptx_convert_to_ptxplus                    0 # Convert SASS (native ISA) to ptxplus and run ptxplus
-gpgpu_ptx_force_max_capability                   70 # Force maximum compute capability
-gpgpu_ptx_inst_debug_to_file                    0 # Dump executed instructions' debug information to file
-gpgpu_ptx_inst_debug_file       inst_debug.txt # Executed instructions' debug output file
-gpgpu_ptx_inst_debug_thread_uid                    1 # Thread UID for executed instructions' debug output
-gpgpu_n_mem_for_l2wb_pcommit                   32 # number of memory modules (e.g. memory controllers) in gpu
-gpgpu_n_sub_partition_per_mchannel_for_l2wb_pcommit                    2 # number of memory subpartition in each memory module
-gpgpu_dl2_bsize_for_l2wb_pcommit                  128 # default 128 bytes
-gpgpu_simd_model                       1 # 1 = post-dominator
-gpgpu_shader_core_pipeline              2048:32 # shader core pipeline config, i.e., {<nthread>:<warpsize>}
-gpgpu_tex_cache:l1  N:4:128:256,L:R:m:N:L,T:512:8,128:2 # per-shader L1 texture cache  (READ-ONLY) config  {<nsets>:<bsize>:<assoc>,<rep>:<wr>:<alloc>:<wr_alloc>,<mshr>:<N>:<merge>,<mq>:<rf>}
-gpgpu_const_cache:l1 N:128:64:8,L:R:f:N:L,S:2:64,4 # per-shader L1 constant memory cache  (READ-ONLY) config  {<nsets>:<bsize>:<assoc>,<rep>:<wr>:<alloc>:<wr_alloc>,<mshr>:<N>:<merge>,<mq>} 
-gpgpu_cache:il1     N:64:128:16,L:R:f:N:L,S:2:48,4 # shader L1 instruction cache config  {<nsets>:<bsize>:<assoc>,<rep>:<wr>:<alloc>:<wr_alloc>,<mshr>:<N>:<merge>,<mq>} 
-gpgpu_cache:dl1     S:1:128:256,L:L:s:N:L,A:256:8,16:0,32 # per-shader L1 data cache config  {<nsets>:<bsize>:<assoc>,<rep>:<wr>:<alloc>:<wr_alloc>,<mshr>:<N>:<merge>,<mq> | none}
-gpgpu_l1_banks                         4 # The number of L1 cache banks
-gpgpu_l1_banks_byte_interleaving                   32 # l1 banks byte interleaving granularity
-gpgpu_l1_banks_hashing_function                    0 # l1 banks hashing function
-gpgpu_l1_latency                      20 # L1 Hit Latency
-gpgpu_smem_latency                    20 # smem Latency
-gpgpu_cache:dl1PrefL1                 none # per-shader L1 data cache config  {<nsets>:<bsize>:<assoc>,<rep>:<wr>:<alloc>:<wr_alloc>,<mshr>:<N>:<merge>,<mq> | none}
-gpgpu_cache:dl1PrefShared                 none # per-shader L1 data cache config  {<nsets>:<bsize>:<assoc>,<rep>:<wr>:<alloc>:<wr_alloc>,<mshr>:<N>:<merge>,<mq> | none}
-gpgpu_gmem_skip_L1D                    0 # global memory access skip L1D cache (implements -Xptxas -dlcm=cg, default=no skip)
-gpgpu_perfect_mem                      0 # enable perfect memory mode (no cache miss)
-n_regfile_gating_group                    4 # group of lanes that should be read/written together)
-gpgpu_clock_gated_reg_file                    0 # enable clock gated reg file for power calculations
-gpgpu_clock_gated_lanes                    0 # enable clock gated lanes for power calculations
-gpgpu_shader_registers                65536 # Number of registers per shader core. Limits number of concurrent CTAs. (default 8192)
-gpgpu_registers_per_block                65536 # Maximum number of registers per CTA. (default 8192)
-gpgpu_ignore_resources_limitation                    0 # gpgpu_ignore_resources_limitation (default 0)
-gpgpu_shader_cta                      32 # Maximum number of concurrent CTAs in shader (default 8)
-gpgpu_num_cta_barriers                   16 # Maximum number of named barriers per CTA (default 16)
-gpgpu_n_clusters                      80 # number of processing clusters
-gpgpu_n_cores_per_cluster                    1 # number of simd cores per cluster
-gpgpu_n_cluster_ejection_buffer_size                   32 # number of packets in ejection buffer
-gpgpu_n_ldst_response_buffer_size                    2 # number of response packets in ld/st unit ejection buffer
-gpgpu_shmem_per_block                65536 # Size of shared memory per thread block or CTA (default 48kB)
-gpgpu_shmem_size                   98304 # Size of shared memory per shader core (default 16kB)
-gpgpu_adaptive_cache_config            536870913 # adaptive_cache_config
-gpgpu_shmem_sizeDefault                98304 # Size of shared memory per shader core (default 16kB)
-gpgpu_shmem_size_PrefL1                16384 # Size of shared memory per shader core (default 16kB)
-gpgpu_shmem_size_PrefShared                16384 # Size of shared memory per shader core (default 16kB)
-gpgpu_shmem_num_banks                   32 # Number of banks in the shared memory in each shader core (default 16)
-gpgpu_shmem_limited_broadcast                    0 # Limit shared memory to do one broadcast per cycle (default on)
-gpgpu_shmem_warp_parts                    1 # Number of portions a warp is divided into for shared memory bank conflict check 
-gpgpu_mem_unit_ports                    1 # The number of memory transactions allowed per core cycle
-gpgpu_shmem_warp_parts                    1 # Number of portions a warp is divided into for shared memory bank conflict check 
-gpgpu_warpdistro_shader                   -1 # Specify which shader core to collect the warp size distribution from
-gpgpu_warp_issue_shader                    0 # Specify which shader core to collect the warp issue distribution from
-gpgpu_local_mem_map                    1 # Mapping from local memory space address to simulated GPU physical address space (default = enabled)
-gpgpu_num_reg_banks                   16 # Number of register banks (default = 8)
-gpgpu_reg_bank_use_warp_id                    0 # Use warp ID in mapping registers to banks (default = off)
-gpgpu_sub_core_model                    1 # Sub Core Volta/Pascal model (default = off)
-gpgpu_enable_specialized_operand_collector                    0 # enable_specialized_operand_collector
-gpgpu_operand_collector_num_units_sp                    4 # number of collector units (default = 4)
-gpgpu_operand_collector_num_units_dp                    0 # number of collector units (default = 0)
-gpgpu_operand_collector_num_units_sfu                    4 # number of collector units (default = 4)
-gpgpu_operand_collector_num_units_int                    0 # number of collector units (default = 0)
-gpgpu_operand_collector_num_units_tensor_core                    4 # number of collector units (default = 4)
-gpgpu_operand_collector_num_units_mem                    2 # number of collector units (default = 2)
-gpgpu_operand_collector_num_units_gen                    8 # number of collector units (default = 0)
-gpgpu_operand_collector_num_in_ports_sp                    1 # number of collector unit in ports (default = 1)
-gpgpu_operand_collector_num_in_ports_dp                    0 # number of collector unit in ports (default = 0)
-gpgpu_operand_collector_num_in_ports_sfu                    1 # number of collector unit in ports (default = 1)
-gpgpu_operand_collector_num_in_ports_int                    0 # number of collector unit in ports (default = 0)
-gpgpu_operand_collector_num_in_ports_tensor_core                    1 # number of collector unit in ports (default = 1)
-gpgpu_operand_collector_num_in_ports_mem                    1 # number of collector unit in ports (default = 1)
-gpgpu_operand_collector_num_in_ports_gen                    8 # number of collector unit in ports (default = 0)
-gpgpu_operand_collector_num_out_ports_sp                    1 # number of collector unit in ports (default = 1)
-gpgpu_operand_collector_num_out_ports_dp                    0 # number of collector unit in ports (default = 0)
-gpgpu_operand_collector_num_out_ports_sfu                    1 # number of collector unit in ports (default = 1)
-gpgpu_operand_collector_num_out_ports_int                    0 # number of collector unit in ports (default = 0)
-gpgpu_operand_collector_num_out_ports_tensor_core                    1 # number of collector unit in ports (default = 1)
-gpgpu_operand_collector_num_out_ports_mem                    1 # number of collector unit in ports (default = 1)
-gpgpu_operand_collector_num_out_ports_gen                    8 # number of collector unit in ports (default = 0)
-gpgpu_coalesce_arch                   60 # Coalescing arch (GT200 = 13, Fermi = 20)
-gpgpu_num_sched_per_core                    4 # Number of warp schedulers per core
-gpgpu_max_insn_issue_per_warp                    1 # Max number of instructions that can be issued per warp in one cycle by scheduler (either 1 or 2)
-gpgpu_dual_issue_diff_exec_units                    1 # should dual issue use two different execution unit resources (Default = 1)
-gpgpu_simt_core_sim_order                    1 # Select the simulation order of cores in a cluster (0=Fix, 1=Round-Robin)
-gpgpu_pipeline_widths 4,4,4,4,4,4,4,4,4,4,8,4,4 # Pipeline widths ID_OC_SP,ID_OC_DP,ID_OC_INT,ID_OC_SFU,ID_OC_MEM,OC_EX_SP,OC_EX_DP,OC_EX_INT,OC_EX_SFU,OC_EX_MEM,EX_WB,ID_OC_TENSOR_CORE,OC_EX_TENSOR_CORE
-gpgpu_tensor_core_avail                    1 # Tensor Core Available (default=0)
-gpgpu_num_sp_units                     4 # Number of SP units (default=1)
-gpgpu_num_dp_units                     4 # Number of DP units (default=0)
-gpgpu_num_int_units                    4 # Number of INT units (default=0)
-gpgpu_num_sfu_units                    4 # Number of SF units (default=1)
-gpgpu_num_tensor_core_units                    4 # Number of tensor_core units (default=1)
-gpgpu_num_mem_units                    1 # Number if ldst units (default=1) WARNING: not hooked up to anything
-gpgpu_scheduler                      gto # Scheduler configuration: < lrr | gto | two_level_active > If two_level_active:<num_active_warps>:<inner_prioritization>:<outer_prioritization>For complete list of prioritization values see shader.h enum scheduler_prioritization_typeDefault: gto
-gpgpu_concurrent_kernel_sm                    0 # Support concurrent kernels on a SM (default = disabled)
-gpgpu_perfect_inst_const_cache                    1 # perfect inst and const cache mode, so all inst and const hits in the cache(default = disabled)
-gpgpu_inst_fetch_throughput                    4 # the number of fetched intruction per warp each cycle
-gpgpu_reg_file_port_throughput                    2 # the number ports of the register file
-specialized_unit_1         0,4,4,4,4,BRA # specialized unit config {<enabled>,<num_units>:<latency>:<initiation>,<ID_OC_SPEC>:<OC_EX_SPEC>,<NAME>}
-specialized_unit_2         0,4,4,4,4,BRA # specialized unit config {<enabled>,<num_units>:<latency>:<initiation>,<ID_OC_SPEC>:<OC_EX_SPEC>,<NAME>}
-specialized_unit_3         0,4,4,4,4,BRA # specialized unit config {<enabled>,<num_units>:<latency>:<initiation>,<ID_OC_SPEC>:<OC_EX_SPEC>,<NAME>}
-specialized_unit_4         0,4,4,4,4,BRA # specialized unit config {<enabled>,<num_units>:<latency>:<initiation>,<ID_OC_SPEC>:<OC_EX_SPEC>,<NAME>}
-specialized_unit_5         0,4,4,4,4,BRA # specialized unit config {<enabled>,<num_units>:<latency>:<initiation>,<ID_OC_SPEC>:<OC_EX_SPEC>,<NAME>}
-specialized_unit_6         0,4,4,4,4,BRA # specialized unit config {<enabled>,<num_units>:<latency>:<initiation>,<ID_OC_SPEC>:<OC_EX_SPEC>,<NAME>}
-specialized_unit_7         0,4,4,4,4,BRA # specialized unit config {<enabled>,<num_units>:<latency>:<initiation>,<ID_OC_SPEC>:<OC_EX_SPEC>,<NAME>}
-specialized_unit_8         0,4,4,4,4,BRA # specialized unit config {<enabled>,<num_units>:<latency>:<initiation>,<ID_OC_SPEC>:<OC_EX_SPEC>,<NAME>}
-gpgpu_perf_sim_memcpy                    1 # Fill the L2 cache on memcpy
-gpgpu_simple_dram_model                    0 # simple_dram_model with fixed latency and BW
-gpgpu_dram_scheduler                    1 # 0 = fifo, 1 = FR-FCFS (defaul)
-gpgpu_dram_partition_queues          64:64:64:64 # i2$:$2d:d2$:$2i
-l2_ideal                               0 # Use a ideal L2 cache that always hit
-gpgpu_cache:dl2     S:32:128:24,L:B:m:L:P,A:192:4,32:0,32 # unified banked L2 data cache config  {<nsets>:<bsize>:<assoc>,<rep>:<wr>:<alloc>:<wr_alloc>,<mshr>:<N>:<merge>,<mq>}
-gpgpu_cache:dl2_texture_only                    0 # L2 cache used for texture only
-gpgpu_n_mem                           32 # number of memory modules (e.g. memory controllers) in gpu
-gpgpu_n_sub_partition_per_mchannel                    2 # number of memory subpartition in each memory module
-gpgpu_n_mem_per_ctrlr                    1 # number of memory chips per memory controller
-gpgpu_memlatency_stat                   14 # track and display latency statistics 0x2 enables MC, 0x4 enables queue logs
-gpgpu_frfcfs_dram_sched_queue_size                   64 # 0 = unlimited (default); # entries per chip
-gpgpu_dram_return_queue_size                  192 # 0 = unlimited (default); # entries per chip
-gpgpu_dram_buswidth                   16 # default = 4 bytes (8 bytes per cycle at DDR)
-gpgpu_dram_burst_length                    2 # Burst length of each DRAM request (default = 4 data bus cycle)
-dram_data_command_freq_ratio                    2 # Frequency ratio between DRAM data bus and command bus (default = 2 times, i.e. DDR)
-gpgpu_dram_timing_opt nbk=16:CCD=1:RRD=3:RCD=12:RAS=28:RP=12:RC=40: CL=12:WL=2:CDLR=3:WR=10:nbkgrp=4:CCDL=2:RTPL=3 # DRAM timing parameters = {nbk:tCCD:tRRD:tRCD:tRAS:tRP:tRC:CL:WL:tCDLR:tWR:nbkgrp:tCCDL:tRTPL}
-gpgpu_l2_rop_latency                  160 # ROP queue latency (default 85)
-dram_latency                         200 # DRAM latency (default 30)
-dram_write_latency                   600 # DRAM write latency (default 100)
-dram_dual_bus_interface                    1 # dual_bus_interface (default = 0) 
-dram_bnk_indexing_policy                    0 # dram_bnk_indexing_policy (0 = normal indexing, 1 = Xoring with the higher bits) (Default = 0)
-dram_bnkgrp_indexing_policy                    1 # dram_bnkgrp_indexing_policy (0 = take higher bits, 1 = take lower bits) (Default = 0)
-dram_seperate_write_queue_enable                    0 # Seperate_Write_Queue_Enable
-dram_write_queue_size             32:28:16 # Write_Queue_Size
-dram_elimnate_rw_turnaround                    0 # elimnate_rw_turnaround i.e set tWTR and tRTW = 0
-icnt_flit_size                        40 # icnt_flit_size
-gpgpu_mem_addr_mapping dramid@8;00000000.00000000.00000000.00000000.0000RRRR.RRRRRRRR.RBBBCCCB.CCCSSSSS # mapping memory address to dram model {dramid@<start bit>;<memory address map>}
-gpgpu_mem_addr_test                    0 # run sweep test to check address mapping for aliased address
-gpgpu_mem_address_mask                    1 # 0 = old addressing mask, 1 = new addressing mask, 2 = new add. mask + flipped bank sel and chip sel bits
-gpgpu_memory_partition_indexing                    0 # 0 = no indexing, 1 = bitwise xoring, 2 = IPoly, 3 = custom indexing
-gpuwattch_xml_file         gpuwattch.xml # GPUWattch XML file
-power_simulation_enabled                    0 # Turn on power simulator (1=On, 0=Off)
-power_per_cycle_dump                    0 # Dump detailed power output each cycle
-power_trace_enabled                    0 # produce a file for the power trace (1=On, 0=Off)
-power_trace_zlevel                     6 # Compression level of the power trace output log (0=no comp, 9=highest)
-steady_power_levels_enabled                    0 # produce a file for the steady power levels (1=On, 0=Off)
-steady_state_definition                  8:4 # allowed deviation:number of samples
-gpgpu_max_cycle                        0 # terminates gpu simulation early (0 = no limit)
-gpgpu_max_insn                         0 # terminates gpu simulation early (0 = no limit)
-gpgpu_max_cta                          0 # terminates gpu simulation early (0 = no limit)
-gpgpu_max_completed_cta                    0 # terminates gpu simulation early (0 = no limit)
-gpgpu_runtime_stat                   500 # display runtime statistics such as dram utilization {<freq>:<flag>}
-liveness_message_freq                    1 # Minimum number of seconds between simulation liveness messages (0 = always print)
-gpgpu_compute_capability_major                    7 # Major compute capability version number
-gpgpu_compute_capability_minor                    0 # Minor compute capability version number
-gpgpu_flush_l1_cache                    1 # Flush L1 cache at the end of each kernel call
-gpgpu_flush_l2_cache                    0 # Flush L2 cache at the end of each kernel call
-gpgpu_deadlock_detect                    1 # Stop the simulation at deadlock (1=on (default), 0=off)
-gpgpu_ptx_instruction_classification                    0 # if enabled will classify ptx instruction types per kernel (Max 255 kernels now)
-gpgpu_ptx_sim_mode                     0 # Select between Performance (default) or Functional simulation (1)
-gpgpu_clock_domains 1132.0:1132.0:1132.0:850.0 # Clock Domain Frequencies in MhZ {<Core Clock>:<ICNT Clock>:<L2 Clock>:<DRAM Clock>}
-gpgpu_max_concurrent_kernel                    8 # maximum kernels that can run concurrently on GPU
-gpgpu_cflog_interval                    0 # Interval between each snapshot in control flow logger
-visualizer_enabled               de04e8a9c00d222787cf8eb4b99f3901  /home/pli11/Desktop/re_test/ProgPow/ethash_calculate_dag_item/undo_c_clwb+idem/main
Extracting PTX file and ptxas options    1: main.1.sm_70.ptx -arch=sm_70
      0 # Turn on visualizer output (1=On, 0=Off)
-visualizer_outputfile                 NULL # Specifies the output log file for visualizer
-visualizer_zlevel                      6 # Compression level of the visualizer output log (0=no comp, 9=highest)
-gpgpu_stack_size_limit                 1024 # GPU thread stack size
-gpgpu_heap_size_limit              8388608 # GPU malloc heap size 
-gpgpu_runtime_sync_depth_limit                    2 # GPU device runtime synchronize depth
-gpgpu_runtime_pending_launch_count_limit                 2048 # GPU device runtime pending launch count
-trace_enabled                          0 # Turn on traces
-trace_components                    none # comma seperated list of traces to enable. Complete list found in trace_streams.tup. Default none
-trace_sampling_core                    0 # The core which is printed using CORE_DPRINTF. Default 0
-trace_sampling_memory_partition                   -1 # The memory partition which is printed using MEMPART_DPRINTF. Default -1 (i.e. all)
-enable_ptx_file_line_stats                    1 # Turn on PTX source line statistic profiling. (1 = On)
-ptx_line_stats_filename gpgpu_inst_stats.txt # Output file for PTX source line statistics.
-gpgpu_kernel_launch_latency                 5000 # Kernel launch latency in cycles. Default: 0
-gpgpu_cdp_enabled                      0 # Turn on CDP
-gpgpu_TB_launch_latency                    0 # thread block launch latency in cycles. Default: 0
DRAM Timing Options:
nbk                                    16 # number of banks
CCD                                     1 # column to column delay
RRD                                     3 # minimal delay between activation of rows in different banks
RCD                                    12 # row to column delay
RAS                                    28 # time needed to activate row
RP                                     12 # time needed to precharge (deactivate) row
RC                                     40 # row cycle time
CDLR                                    3 # switching from write to read (changes tWTR)
WR                                     10 # last data-in to row precharge
CL                                     12 # CAS latency
WL                                      2 # Write latency
nbkgrp                                  4 # number of bank groups
CCDL                                    2 # column to column delay between accesses to different bank groups
RTPL                                    3 # read to precharge delay between accesses to different bank groups
Total number of memory sub partition = 64
addr_dec_mask[CHIP]  = 0000000000001f00 	high:13 low:8
addr_dec_mask[BK]    = 00000000000e2000 	high:20 low:13
addr_dec_mask[ROW]   = 00000001fff00000 	high:33 low:20
addr_dec_mask[COL]   = 000000000001c0ff 	high:17 low:0
addr_dec_mask[BURST] = 000000000000001f 	high:5 low:0
sub_partition_id_mask = 0000000000002000
GPGPU-Sim uArch: clock freqs: 1132000000.000000:1132000000.000000:1132000000.000000:850000000.000000
GPGPU-Sim uArch: clock periods: 0.00000000088339222615:0.00000000088339222615:0.00000000088339222615:0.00000000117647058824
*** Initializing Memory Statistics ***
GPGPU-Sim uArch: performance model initialization complete.
self exe links to: /home/pli11/Desktop/re_test/ProgPow/ethash_calculate_dag_item/undo_c_clwb+idem/main
self exe links to: /home/pli11/Desktop/re_test/ProgPow/ethash_calculate_dag_item/undo_c_clwb+idem/main
10.1
GPGPU-Sim PTX: __cudaRegisterFatBinary, fat_cubin_handle = 1, filename=default
self exe links to: /home/pli11/Desktop/re_test/ProgPow/ethash_calculate_dag_item/undo_c_clwb+idem/main
Running md5sum using "md5sum /home/pli11/Desktop/re_test/ProgPow/ethash_calculate_dag_item/undo_c_clwb+idem/main "
self exe links to: /home/pli11/Desktop/re_test/ProgPow/ethash_calculate_dag_item/undo_c_clwb+idem/main
Extracting specific PTX file named main.1.sm_70.ptx 
GPGPU-Sim PTX: __cudaRegisterFunction _Z25ethash_calculate_dag_itemjP8hash64_tmS0_j : hostFun 0x0x4123e6, fat_cubin_handle = 1
GPGPU-Sim PTX: Parsing main.1.sm_70.ptx
GPGPU-Sim PTX: allocating constant region for "keccakf_rndc" from 0x100 to 0x1c0 (global memory space) 1
GPGPU-Sim PTX: allocating global region for "NVM_log" from 0x200 to 0x4000200 (global memory space)
GPGPU-Sim PTX: allocating global region for "NVM_flag" from 0x4000200 to 0x4400200 (global memory space)
GPGPU-Sim PTX: allocating stack frame region for .local "__local_depot0" from 0x0 to 0x40
GPGPU-Sim PTX: instruction assembly for function '_Z25ethash_calculate_dag_itemjP8hash64_tmS0_j'...   done.
GPGPU-Sim PTX: finished parsing EMBEDDED .ptx file main.1.sm_70.ptx
GPGPU-Sim PTX: loading globals with explicit initializers... 
GPGPU-Sim PTX: finished loading globals (0 bytes total).
GPGPU-Sim PTX: loading constants with explicit initializers...  done.
GPGPU-Sim PTX: Loading PTXInfo from main.1.sm_70.ptx
GPGPU-Sim PTX: Binary info : gmem=71303168, cmem=192
GPGPU-Sim PTX: Kernel '_Z25ethash_calculate_dag_itemjP8hash64_tmS0_j' : regs=80, lmem=0, smem=0, cmem=388
GPGPU-Sim PTX: __cudaRegisterVar: hostVar = 0x41c4c0; deviceAddress = keccakf_rndc; deviceName = keccakf_rndc
GPGPU-Sim PTX: __cudaRegisterVar: Registering const memory space of 192 bytes
GPGPU-Sim PTX registering constant keccakf_rndc (192 bytes) to name mapping
GPGPU-Sim PTX: __cudaRegisterVar: hostVar = 0x6bf9c0; deviceAddress = NVM_log; deviceName = NVM_log
GPGPU-Sim PTX: __cudaRegisterVar: Registering const memory space of 67108864 bytes
GPGPU-Sim PTX registering global NVM_log hostVar to name mapping
GPGPU-Sim PTX: __cudaRegisterVar: hostVar = 0x46bf9c0; deviceAddress = NVM_flag; deviceName = NVM_flag
GPGPU-Sim PTX: __cudaRegisterVar: Registering const memory space of 4194304 bytes
GPGPU-Sim PTX registering global NVM_flag hostVar to name mapping
Set Device to current
Resetting device
Allocating light with size: 16907456
Generating mining buffers
GPGPU-Sim PTX: cudaStreamCreate
GPGPU-Sim PTX: cudaStreamCreate
Generating DAG for GPU #0 with dagBytes: 1082130304 gridSize: 4
fullRuns=16512
GPGPU-Sim PTX: Setting up arguments for 4 bytes starting at 0x7ffddb0af69c..
GPGPU-Sim PTX: Setting up arguments for 8 bytes starting at 0x7ffddb0af690..
GPGPU-Sim PTX: Setting up arguments for 8 bytes starting at 0x7ffddb0af688..
GPGPU-Sim PTX: Setting up arguments for 8 bytes starting at 0x7ffddb0af680..
GPGPU-Sim PTX: Setting up arguments for 4 bytes starting at 0x7ffddb0af698..

GPGPU-Sim PTX: cudaLaunch for 0x0x4123e6 (mode=performance simulation) on stream 1
GPGPU-Sim PTX: finding reconvergence points for '_Z25ethash_calculate_dag_itemjP8hash64_tmS0_j'...
GPGPU-Sim PTX: Finding dominators for '_Z25ethash_calculate_dag_itemjP8hash64_tmS0_j'...
GPGPU-Sim PTX: Finding immediate dominators for '_Z25ethash_calculate_dag_itemjP8hash64_tmS0_j'...
GPGPU-Sim PTX: Finding postdominators for '_Z25ethash_calculate_dag_itemjP8hash64_tmS0_j'...
GPGPU-Sim PTX: Finding immediate postdominators for '_Z25ethash_calculate_dag_itemjP8hash64_tmS0_j'...
GPGPU-Sim PTX: pre-decoding instructions for '_Z25ethash_calculate_dag_itemjP8hash64_tmS0_j'...
GPGPU-Sim PTX: reconvergence points for _Z25ethash_calculate_dag_itemjP8hash64_tmS0_j...
GPGPU-Sim PTX:  1 (potential) branch divergence @  PC=0x088 (main.1.sm_70.ptx:51) @%p4098 bra BB0_2580;
GPGPU-Sim PTX:    immediate post dominator      @  PC=0x2bc28 (main.1.sm_70.ptx:26754) ret;
GPGPU-Sim PTX:  2 (potential) branch divergence @  PC=0x0d8 (main.1.sm_70.ptx:62) @%p4099 bra BB0_3;
GPGPU-Sim PTX:    immediate post dominator      @  PC=0x158 (main.1.sm_70.ptx:87) cvt.u64.u32%rd3, %r5986;
GPGPU-Sim PTX:  3 (potential) branch divergence @  PC=0x170 (main.1.sm_70.ptx:90) @%p4100 bra BB0_5;
GPGPU-Sim PTX:    immediate post dominator      @  PC=0x1a8 (main.1.sm_70.ptx:102) shl.b64 %rd6301, %rd7673, 6;
GPGPU-Sim PTX:  4 (potential) branch divergence @  PC=0x180 (main.1.sm_70.ptx:93) bra.uni BB0_6;
GPGPU-Sim PTX:    immediate post dominator      @  PC=0x1a8 (main.1.sm_70.ptx:102) shl.b64 %rd6301, %rd7673, 6;
GPGPU-Sim PTX:  5 (potential) branch divergence @  PC=0xb38 (main.1.sm_70.ptx:613) @%p4101 bra BB0_7;
GPGPU-Sim PTX:    immediate post dominator      @  PC=0xb40 (main.1.sm_70.ptx:615) mov.u32 %r24731, %tid.x;
GPGPU-Sim PTX:  6 (potential) branch divergence @  PC=0xbf0 (main.1.sm_70.ptx:639) @%p4103 bra BB0_11;
GPGPU-Sim PTX:    immediate post dominator      @  PC=0xc58 (main.1.sm_70.ptx:655) shfl.sync.idx.b32 %r17|%p5, %r6078, %r6045, %r6075, %r6076;
GPGPU-Sim PTX:  7 (potential) branch divergence @  PC=0xc78 (main.1.sm_70.ptx:659) @%p4103 bra BB0_13;
GPGPU-Sim PTX:    immediate post dominator      @  PC=0xce0 (main.1.sm_70.ptx:675) shfl.sync.idx.b32 %r21|%p9, %r6078, %r6055, %r6075, %r6076;
GPGPU-Sim PTX:  8 (potential) branch divergence @  PC=0xd00 (main.1.sm_70.ptx:679) @%p4103 bra BB0_15;
GPGPU-Sim PTX:    immediate post dominator      @  PC=0xd68 (main.1.sm_70.ptx:695) shfl.sync.idx.b32 %r25|%p13, %r6078, %r6046, %r6075, %r6076;
GPGPU-Sim PTX:  9 (potential) branch divergence @  PC=0xd88 (main.1.sm_70.ptx:699) @%p4103 bra BB0_17;
GPGPU-Sim PTX:    immediate post dominator      @  PC=0xdf0 (main.1.sm_70.ptx:715) add.s32 %r24764, %r24764, 1;
GPGPU-Sim PTX: 10 (potential) branch divergence @  PC=0xe00 (main.1.sm_70.ptx:717) @%p4107 bra BB0_9;
GPGPU-Sim PTX:    immediate post dominator      @  PC=0xe08 (main.1.sm_70.ptx:719) xor.b32 %r6141, %r6037, 1;
GPGPU-Sim PTX: 11 (potential) branch divergence @  PC=0xe90 (main.1.sm_70.ptx:738) @%p4109 bra BB0_21;
GPGPU-Sim PTX:    immediate post dominator      @  PC=0xef8 (main.1.sm_70.ptx:754) shfl.sync.idx.b32 %r40|%p21, %r6150, %r6045, %r6075, %r6076;
GPGPU-Sim PTX: 12 (potential) branch divergence @  PC=0xf18 (main.1.sm_70.ptx:758) @%p4109 bra BB0_23;
GPGPU-Sim PTX:    immediate post dominator      @  PC=0xf80 (main.1.sm_70.ptx:774) shfl.sync.idx.b32 %r44|%p25, %r6150, %r6055, %r6075, %r6076;
GPGPU-Sim PTX: 13 (potential) branch divergence @  PC=0xfa0 (main.1.sm_70.ptx:778) @%p4109 bra BB0_25;
GPGPU-Sim PTX:    immediate post dominator      @  PC=0x1008 (main.1.sm_70.ptx:794) shfl.sync.idx.b32 %r48|%p29, %r6150, %r6046, %r6075, %r6076;
GPGPU-Sim PTX: 14 (potential) branch divergence @  PC=0x1028 (main.1.sm_70.ptx:798) @%p4109 bra BB0_27;
GPGPU-Sim PTX:    immediate post dominator      @  PC=0x1090 (main.1.sm_70.ptx:814) add.s32 %r24765, %r24765, 1;
GPGPU-Sim PTX: 15 (potential) branch divergence @  PC=0x10a0 (main.1.sm_70.ptx:816) @%p4113 bra BB0_19;
GPGPU-Sim PTX:    immediate post dominator      @  PC=0x10a8 (main.1.sm_70.ptx:818) xor.b32 %r6213, %r6037, 2;
GPGPU-Sim PTX: 16 (potential) branch divergence @  PC=0x1130 (main.1.sm_70.ptx:837) @%p4115 bra BB0_31;
GPGPU-Sim PTX:    immediate post dominator      @  PC=0x1198 (main.1.sm_70.ptx:853) shfl.sync.idx.b32 %r63|%p37, %r6222, %r6045, %r6075, %r6076;
GPGPU-Sim PTX: 17 (potential) branch divergence @  PC=0x11b8 (main.1.sm_70.ptx:857) @%p4115 bra BB0_33;
GPGPU-Sim PTX:    immediate post dominator      @  PC=0x1220 (main.1.sm_70.ptx:873) shfl.sync.idx.b32 %r67|%p41, %r6222, %r6055, %r6075, %r6076;
GPGPU-Sim PTX: 18 (potential) branch divergence @  PC=0x1240 (main.1.sm_70.ptx:877) @%p4115 bra BB0_35;
GPGPU-Sim PTX:    immediate post dominator      @  PC=0x12a8 (main.1.sm_70.ptx:893) shfl.sync.idx.b32 %r71|%p45, %r6222, %r6046, %r6075, %r6076;
GPGPU-Sim PTX: 19 (potential) branch divergence @  PC=0x12c8 (main.1.sm_70.ptx:897) @%p4115 bra BB0_37;
GPGPU-Sim PTX:    immediate post dominator      @  PC=0x1330 (main.1.sm_70.ptx:913) add.s32 %r24766, %r24766, 1;
GPGPU-Sim PTX: 20 (potential) branch divergence @  PC=0x1340 (main.1.sm_70.ptx:915) @%p4119 bra BB0_29;
GPGPU-Sim PTX:    immediate post dominator      @  PC=0x1348 (main.1.sm_70.ptx:917) xor.b32 %r6285, %r6037, 3;
GPGPU-Sim PTX: 21 (potential) branch divergence @  PC=0x13d0 (main.1.sm_70.ptx:936) @%p4121 bra BB0_41;
GPGPU-Sim PTX:    immediate post dominator      @  PC=0x1438 (main.1.sm_70.ptx:952) shfl.sync.idx.b32 %r86|%p53, %r6294, %r6045, %r6075, %r6076;
GPGPU-Sim PTX: 22 (potential) branch divergence @  PC=0x1458 (main.1.sm_70.ptx:956) @%p4121 bra BB0_43;
GPGPU-Sim PTX:    immediate post dominator      @  PC=0x14c0 (main.1.sm_70.ptx:972) shfl.sync.idx.b32 %r90|%p57, %r6294, %r6055, %r6075, %r6076;
GPGPU-Sim PTX: 23 (potential) branch divergence @  PC=0x14e0 (main.1.sm_70.ptx:976) @%p4121 bra BB0_45;
GPGPU-Sim PTX:    immediate post dominator      @  PC=0x1548 (main.1.sm_70.ptx:992) shfl.sync.idx.b32 %r94|%p61, %r6294, %r6046, %r6075, %r6076;
GPGPU-Sim PTX: 24 (potential) branch divergence @  PC=0x1568 (main.1.sm_70.ptx:996) @%p4121 bra BB0_47;
GPGPU-Sim PTX:    immediate post dominator      @  PC=0x15d0 (main.1.sm_70.ptx:1012) add.s32 %r24767, %r24767, 1;
GPGPU-Sim PTX: 25 (potential) branch divergence @  PC=0x15e0 (main.1.sm_70.ptx:1014) @%p4125 bra BB0_39;
GPGPU-Sim PTX:    immediate post dominator      @  PC=0x15e8 (main.1.sm_70.ptx:1016) xor.b32 %r6357, %r6037, 4;
GPGPU-Sim PTX: 26 (potential) branch divergence @  PC=0x1670 (main.1.sm_70.ptx:1035) @%p4127 bra BB0_51;
GPGPU-Sim PTX:    immediate post dominator      @  PC=0x16d8 (main.1.sm_70.ptx:1051) shfl.sync.idx.b32 %r109|%p69, %r6366, %r6045, %r6075, %r6076;
GPGPU-Sim PTX: 27 (potential) branch divergence @  PC=0x16f8 (main.1.sm_70.ptx:1055) @%p4127 bra BB0_53;
GPGPU-Sim PTX:    immediate post dominator      @  PC=0x1760 (main.1.sm_70.ptx:1071) shfl.sync.idx.b32 %r113|%p73, %r6366, %r6055, %r6075, %r6076;
GPGPU-Sim PTX: 28 (potential) branch divergence @  PC=0x1780 (main.1.sm_70.ptx:1075) @%p4127 bra BB0_55;
GPGPU-Sim PTX:    immediate post dominator      @  PC=0x17e8 (main.1.sm_70.ptx:1091) shfl.sync.idx.b32 %r117|%p77, %r6366, %r6046, %r6075, %r6076;
GPGPU-Sim PTX: 29 (potential) branch divergence @  PC=0x1808 (main.1.sm_70.ptx:1095) @%p4127 bra BB0_57;
GPGPU-Sim PTX:    immediate post dominator      @  PC=0x1870 (main.1.sm_70.ptx:1111) add.s32 %r24768, %r24768, 1;
GPGPU-Sim PTX: 30 (potential) branch divergence @  PC=0x1880 (main.1.sm_70.ptx:1113) @%p4131 bra BB0_49;
GPGPU-Sim PTX:    immediate post dominator      @  PC=0x1888 (main.1.sm_70.ptx:1115) xor.b32 %r6429, %r6037, 5;
GPGPU-Sim PTX: 31 (potential) branch divergence @  PC=0x1910 (main.1.sm_70.ptx:1134) @%p4133 bra BB0_61;
GPGPU-Sim PTX:    immediate post dominator      @  PC=0x1978 (main.1.sm_70.ptx:1150) shfl.sync.idx.b32 %r132|%p85, %r6438, %r6045, %r6075, %r6076;
GPGPU-Sim PTX: 32 (potential) branch divergence @  PC=0x1998 (main.1.sm_70.ptx:1154) @%p4133 bra BB0_63;
GPGPU-Sim PTX:    immediate post dominator      @  PC=0x1a00 (main.1.sm_70.ptx:1170) shfl.sync.idx.b32 %r136|%p89, %r6438, %r6055, %r6075, %r6076;
GPGPU-Sim PTX: 33 (potential) branch divergence @  PC=0x1a20 (main.1.sm_70.ptx:1174) @%p4133 bra BB0_65;
GPGPU-Sim PTX:    immediate post dominator      @  PC=0x1a88 (main.1.sm_70.ptx:1190) shfl.sync.idx.b32 %r140|%p93, %r6438, %r6046, %r6075, %r6076;
GPGPU-Sim PTX: 34 (potential) branch divergence @  PC=0x1aa8 (main.1.sm_70.ptx:1194) @%p4133 bra BB0_67;
GPGPU-Sim PTX:    immediate post dominator      @  PC=0x1b10 (main.1.sm_70.ptx:1210) add.s32 %r24769, %r24769, 1;
GPGPU-Sim PTX: 35 (potential) branch divergence @  PC=0x1b20 (main.1.sm_70.ptx:1212) @%p4137 bra BB0_59;
GPGPU-Sim PTX:    immediate post dominator      @  PC=0x1b28 (main.1.sm_70.ptx:1214) xor.b32 %r6501, %r6037, 6;
GPGPU-Sim PTX: 36 (potential) branch divergence @  PC=0x1bb0 (main.1.sm_70.ptx:1233) @%p4139 bra BB0_71;
GPGPU-Sim PTX:    immediate post dominator      @  PC=0x1c18 (main.1.sm_70.ptx:1249) shfl.sync.idx.b32 %r155|%p101, %r6510, %r6045, %r6075, %r6076;
GPGPU-Sim PTX: 37 (potential) branch divergence @  PC=0x1c38 (main.1.sm_70.ptx:1253) @%p4139 bra BB0_73;
GPGPU-Sim PTX:    immediate post dominator      @  PC=0x1ca0 (main.1.sm_70.ptx:1269) shfl.sync.idx.b32 %r159|%p105, %r6510, %r6055, %r6075, %r6076;
GPGPU-Sim PTX: 38 (potential) branch divergence @  PC=0x1cc0 (main.1.sm_70.ptx:1273) @%p4139 bra BB0_75;
GPGPU-Sim PTX:    immediate post dominator      @  PC=0x1d28 (main.1.sm_70.ptx:1289) shfl.sync.idx.b32 %r163|%p109, %r6510, %r6046, %r6075, %r6076;
GPGPU-Sim PTX: 39 (potential) branch divergence @  PC=0x1d48 (main.1.sm_70.ptx:1293) @%p4139 bra BB0_77;
GPGPU-Sim PTX:    immediate post dominator      @  PC=0x1db0 (main.1.sm_70.ptx:1309) add.s32 %r24770, %r24770, 1;
GPGPU-Sim PTX: 40 (potential) branch divergence @  PC=0x1dc0 (main.1.sm_70.ptx:1311) @%p4143 bra BB0_69;
GPGPU-Sim PTX:    immediate post dominator      @  PC=0x1dc8 (main.1.sm_70.ptx:1313) xor.b32 %r6573, %r6037, 7;
GPGPU-Sim PTX: 41 (potential) branch divergence @  PC=0x1e50 (main.1.sm_70.ptx:1332) @%p4145 bra BB0_81;
GPGPU-Sim PTX:    immediate post dominator      @  PC=0x1eb8 (main.1.sm_70.ptx:1348) shfl.sync.idx.b32 %r178|%p117, %r6582, %r6045, %r6075, %r6076;
GPGPU-Sim PTX: 42 (potential) branch divergence @  PC=0x1ed8 (main.1.sm_70.ptx:1352) @%p4145 bra BB0_83;
GPGPU-Sim PTX:    immediate post dominator      @  PC=0x1f40 (main.1.sm_70.ptx:1368) shfl.sync.idx.b32 %r182|%p121, %r6582, %r6055, %r6075, %r6076;
GPGPU-Sim PTX: 43 (potential) branch divergence @  PC=0x1f60 (main.1.sm_70.ptx:1372) @%p4145 bra BB0_85;
GPGPU-Sim PTX:    immediate post dominator      @  PC=0x1fc8 (main.1.sm_70.ptx:1388) shfl.sync.idx.b32 %r186|%p125, %r6582, %r6046, %r6075, %r6076;
GPGPU-Sim PTX: 44 (potential) branch divergence @  PC=0x1fe8 (main.1.sm_70.ptx:1392) @%p4145 bra BB0_87;
GPGPU-Sim PTX:    immediate post dominator      @  PC=0x2050 (main.1.sm_70.ptx:1408) add.s32 %r24771, %r24771, 1;
GPGPU-Sim PTX: 45 (potential) branch divergence @  PC=0x2060 (main.1.sm_70.ptx:1410) @%p4149 bra BB0_79;
GPGPU-Sim PTX:    immediate post dominator      @  PC=0x2068 (main.1.sm_70.ptx:1412) xor.b32 %r6645, %r6037, 8;
GPGPU-Sim PTX: 46 (potential) branch divergence @  PC=0x20f0 (main.1.sm_70.ptx:1431) @%p4151 bra BB0_91;
GPGPU-Sim PTX:    immediate post dominator      @  PC=0x2158 (main.1.sm_70.ptx:1447) shfl.sync.idx.b32 %r201|%p133, %r6654, %r6045, %r6075, %r6076;
GPGPU-Sim PTX: 47 (potential) branch divergence @  PC=0x2178 (main.1.sm_70.ptx:1451) @%p4151 bra BB0_93;
GPGPU-Sim PTX:    immediate post dominator      @  PC=0x21e0 (main.1.sm_70.ptx:1467) shfl.sync.idx.b32 %r205|%p137, %r6654, %r6055, %r6075, %r6076;
GPGPU-Sim PTX: 48 (potential) branch divergence @  PC=0x2200 (main.1.sm_70.ptx:1471) @%p4151 bra BB0_95;
GPGPU-Sim PTX:    immediate post dominator      @  PC=0x2268 (main.1.sm_70.ptx:1487) shfl.sync.idx.b32 %r209|%p141, %r6654, %r6046, %r6075, %r6076;
GPGPU-Sim PTX: 49 (potential) branch divergence @  PC=0x2288 (main.1.sm_70.ptx:1491) @%p4151 bra BB0_97;
GPGPU-Sim PTX:    immediate post dominator      @  PC=0x22f0 (main.1.sm_70.ptx:1507) add.s32 %r24772, %r24772, 1;
GPGPU-Sim PTX: 50 (potential) branch divergence @  PC=0x2300 (main.1.sm_70.ptx:1509) @%p4155 bra BB0_89;
GPGPU-Sim PTX:    immediate post dominator      @  PC=0x2308 (main.1.sm_70.ptx:1511) xor.b32 %r6717, %r6037, 9;
GPGPU-Sim PTX: 51 (potential) branch divergence @  PC=0x2390 (main.1.sm_70.ptx:1530) @%p4157 bra BB0_101;
GPGPU-Sim PTX:    immediate post dominator      @  PC=0x23f8 (main.1.sm_70.ptx:1546) shfl.sync.idx.b32 %r224|%p149, %r6726, %r6045, %r6075, %r6076;
GPGPU-Sim PTX: 52 (potential) branch divergence @  PC=0x2418 (main.1.sm_70.ptx:1550) @%p4157 bra BB0_103;
GPGPU-Sim PTX:    immediate post dominator      @  PC=0x2480 (main.1.sm_70.ptx:1566) shfl.sync.idx.b32 %r228|%p153, %r6726, %r6055, %r6075, %r6076;
GPGPU-Sim PTX: 53 (potential) branch divergence @  PC=0x24a0 (main.1.sm_70.ptx:1570) @%p4157 bra BB0_105;
GPGPU-Sim PTX:    immediate post dominator      @  PC=0x2508 (main.1.sm_70.ptx:1586) shfl.sync.idx.b32 %r232|%p157, %r6726, %r6046, %r6075, %r6076;
GPGPU-Sim PTX: 54 (potential) branch divergence @  PC=0x2528 (main.1.sm_70.ptx:1590) @%p4157 bra BB0_107;
GPGPU-Sim PTX:    immediate post dominator      @  PC=0x2590 (main.1.sm_70.ptx:1606) add.s32 %r24773, %r24773, 1;
GPGPU-Sim PTX: 55 (potential) branch divergence @  PC=0x25a0 (main.1.sm_70.ptx:1608) @%p4161 bra BB0_99;
GPGPU-Sim PTX:    immediate post dominator      @  PC=0x25a8 (main.1.sm_70.ptx:1610) xor.b32 %r6789, %r6037, 10;
GPGPU-Sim PTX: 56 (potential) branch divergence @  PC=0x2630 (main.1.sm_70.ptx:1629) @%p4163 bra BB0_111;
GPGPU-Sim PTX:    immediate post dominator      @  PC=0x2698 (main.1.sm_70.ptx:1645) shfl.sync.idx.b32 %r247|%p165, %r6798, %r6045, %r6075, %r6076;
GPGPU-Sim PTX: 57 (potential) branch divergence @  PC=0x26b8 (main.1.sm_70.ptx:1649) @%p4163 bra BB0_113;
GPGPU-Sim PTX:    immediate post dominator      @  PC=0x2720 (main.1.sm_70.ptx:1665) shfl.sync.idx.b32 %r251|%p169, %r6798, %r6055, %r6075, %r6076;
GPGPU-Sim PTX: 58 (potential) branch divergence @  PC=0x2740 (main.1.sm_70.ptx:1669) @%p4163 bra BB0_115;
GPGPU-Sim PTX:    immediate post dominator      @  PC=0x27a8 (main.1.sm_70.ptx:1685) shfl.sync.idx.b32 %r255|%p173, %r6798, %r6046, %r6075, %r6076;
GPGPU-Sim PTX: 59 (potential) branch divergence @  PC=0x27c8 (main.1.sm_70.ptx:1689) @%p4163 bra BB0_117;
GPGPU-Sim PTX:    immediate post dominator      @  PC=0x2830 (main.1.sm_70.ptx:1705) add.s32 %r24774, %r24774, 1;
GPGPU-Sim PTX: 60 (potential) branch divergence @  PC=0x2840 (main.1.sm_70.ptx:1707) @%p4167 bra BB0_109;
GPGPU-Sim PTX:    immediate post dominator      @  PC=0x2848 (main.1.sm_70.ptx:1709) xor.b32 %r6861, %r6037, 11;
GPGPU-Sim PTX: 61 (potential) branch divergence @  PC=0x28d0 (main.1.sm_70.ptx:1728) @%p4169 bra BB0_121;
GPGPU-Sim PTX:    immediate post dominator      @  PC=0x2938 (main.1.sm_70.ptx:1744) shfl.sync.idx.b32 %r270|%p181, %r6870, %r6045, %r6075, %r6076;
GPGPU-Sim PTX: 62 (potential) branch divergence @  PC=0x2958 (main.1.sm_70.ptx:1748) @%p4169 bra BB0_123;
GPGPU-Sim PTX:    immediate post dominator      @  PC=0x29c0 (main.1.sm_70.ptx:1764) shfl.sync.idx.b32 %r274|%p185, %r6870, %r6055, %r6075, %r6076;
GPGPU-Sim PTX: 63 (potential) branch divergence @  PC=0x29e0 (main.1.sm_70.ptx:1768) @%p4169 bra BB0_125;
GPGPU-Sim PTX:    immediate post dominator      @  PC=0x2a48 (main.1.sm_70.ptx:1784) shfl.sync.idx.b32 %r278|%p189, %r6870, %r6046, %r6075, %r6076;
GPGPU-Sim PTX: 64 (potential) branch divergence @  PC=0x2a68 (main.1.sm_70.ptx:1788) @%p4169 bra BB0_127;
GPGPU-Sim PTX:    immediate post dominator      @  PC=0x2ad0 (main.1.sm_70.ptx:1804) add.s32 %r24775, %r24775, 1;
GPGPU-Sim PTX: 65 (potential) branch divergence @  PC=0x2ae0 (main.1.sm_70.ptx:1806) @%p4173 bra BB0_119;
GPGPU-Sim PTX:    immediate post dominator      @  PC=0x2ae8 (main.1.sm_70.ptx:1808) xor.b32 %r6933, %r6037, 12;
GPGPU-Sim PTX: 66 (potential) branch divergence @  PC=0x2b70 (main.1.sm_70.ptx:1827) @%p4175 bra BB0_131;
GPGPU-Sim PTX:    immediate post dominator      @  PC=0x2bd8 (main.1.sm_70.ptx:1843) shfl.sync.idx.b32 %r293|%p197, %r6942, %r6045, %r6075, %r6076;
GPGPU-Sim PTX: 67 (potential) branch divergence @  PC=0x2bf8 (main.1.sm_70.ptx:1847) @%p4175 bra BB0_133;
GPGPU-Sim PTX:    immediate post dominator      @  PC=0x2c60 (main.1.sm_70.ptx:1863) shfl.sync.idx.b32 %r297|%p201, %r6942, %r6055, %r6075, %r6076;
GPGPU-Sim PTX: 68 (potential) branch divergence @  PC=0x2c80 (main.1.sm_70.ptx:1867) @%p4175 bra BB0_135;
GPGPU-Sim PTX:    immediate post dominator      @  PC=0x2ce8 (main.1.sm_70.ptx:1883) shfl.sync.idx.b32 %r301|%p205, %r6942, %r6046, %r6075, %r6076;
GPGPU-Sim PTX: 69 (potential) branch divergence @  PC=0x2d08 (main.1.sm_70.ptx:1887) @%p4175 bra BB0_137;
GPGPU-Sim PTX:    immediate post dominator      @  PC=0x2d70 (main.1.sm_70.ptx:1903) add.s32 %r24776, %r24776, 1;
GPGPU-Sim PTX: 70 (potential) branch divergence @  PC=0x2d80 (main.1.sm_70.ptx:1905) @%p4179 bra BB0_129;
GPGPU-Sim PTX:    immediate post dominator      @  PC=0x2d88 (main.1.sm_70.ptx:1907) xor.b32 %r7005, %r6037, 13;
GPGPU-Sim PTX: 71 (potential) branch divergence @  PC=0x2e10 (main.1.sm_70.ptx:1926) @%p4181 bra BB0_141;
GPGPU-Sim PTX:    immediate post dominator      @  PC=0x2e78 (main.1.sm_70.ptx:1942) shfl.sync.idx.b32 %r316|%p213, %r7014, %r6045, %r6075, %r6076;
GPGPU-Sim PTX: 72 (potential) branch divergence @  PC=0x2e98 (main.1.sm_70.ptx:1946) @%p4181 bra BB0_143;
GPGPU-Sim PTX:    immediate post dominator      @  PC=0x2f00 (main.1.sm_70.ptx:1962) shfl.sync.idx.b32 %r320|%p217, %r7014, %r6055, %r6075, %r6076;
GPGPU-Sim PTX: 73 (potential) branch divergence @  PC=0x2f20 (main.1.sm_70.ptx:1966) @%p4181 bra BB0_145;
GPGPU-Sim PTX:    immediate post dominator      @  PC=0x2f88 (main.1.sm_70.ptx:1982) shfl.sync.idx.b32 %r324|%p221, %r7014, %r6046, %r6075, %r6076;
GPGPU-Sim PTX: 74 (potential) branch divergence @  PC=0x2fa8 (main.1.sm_70.ptx:1986) @%p4181 bra BB0_147;
GPGPU-Sim PTX:    immediate post dominator      @  PC=0x3010 (main.1.sm_70.ptx:2002) add.s32 %r24777, %r24777, 1;
GPGPU-Sim PTX: 75 (potential) branch divergence @  PC=0x3020 (main.1.sm_70.ptx:2004) @%p4185 bra BB0_139;
GPGPU-Sim PTX:    immediate post dominator      @  PC=0x3028 (main.1.sm_70.ptx:2006) xor.b32 %r7077, %r6037, 14;
GPGPU-Sim PTX: 76 (potential) branch divergence @  PC=0x30b0 (main.1.sm_70.ptx:2025) @%p4187 bra BB0_151;
GPGPU-Sim PTX:    immediate post dominator      @  PC=0x3118 (main.1.sm_70.ptx:2041) shfl.sync.idx.b32 %r339|%p229, %r7086, %r6045, %r6075, %r6076;
GPGPU-Sim PTX: 77 (potential) branch divergence @  PC=0x3138 (main.1.sm_70.ptx:2045) @%p4187 bra BB0_153;
GPGPU-Sim PTX:    immediate post dominator      @  PC=0x31a0 (main.1.sm_70.ptx:2061) shfl.sync.idx.b32 %r343|%p233, %r7086, %r6055, %r6075, %r6076;
GPGPU-Sim PTX: 78 (potential) branch divergence @  PC=0x31c0 (main.1.sm_70.ptx:2065) @%p4187 bra BB0_155;
GPGPU-Sim PTX:    immediate post dominator      @  PC=0x3228 (main.1.sm_70.ptx:2081) shfl.sync.idx.b32 %r347|%p237, %r7086, %r6046, %r6075, %r6076;
GPGPU-Sim PTX: 79 (potential) branch divergence @  PC=0x3248 (main.1.sm_70.ptx:2085) @%p4187 bra BB0_157;
GPGPU-Sim PTX:    immediate post dominator      @  PC=0x32b0 (main.1.sm_70.ptx:2101) add.s32 %r24778, %r24778, 1;
GPGPU-Sim PTX: 80 (potential) branch divergence @  PC=0x32c0 (main.1.sm_70.ptx:2103) @%p4191 bra BB0_149;
GPGPU-Sim PTX:    immediate post dominator      @  PC=0x32c8 (main.1.sm_70.ptx:2105) xor.b32 %r7149, %r6037, 15;
GPGPU-Sim PTX: 81 (potential) branch divergence @  PC=0x3350 (main.1.sm_70.ptx:2124) @%p4193 bra BB0_161;
GPGPU-Sim PTX:    immediate post dominator      @  PC=0x33b8 (main.1.sm_70.ptx:2140) shfl.sync.idx.b32 %r362|%p245, %r7158, %r6045, %r6075, %r6076;
GPGPU-Sim PTX: 82 (potential) branch divergence @  PC=0x33d8 (main.1.sm_70.ptx:2144) @%p4193 bra BB0_163;
GPGPU-Sim PTX:    immediate post dominator      @  PC=0x3440 (main.1.sm_70.ptx:2160) shfl.sync.idx.b32 %r366|%p249, %r7158, %r6055, %r6075, %r6076;
GPGPU-Sim PTX: 83 (potential) branch divergence @  PC=0x3460 (main.1.sm_70.ptx:2164) @%p4193 bra BB0_165;
GPGPU-Sim PTX:    immediate post dominator      @  PC=0x34c8 (main.1.sm_70.ptx:2180) shfl.sync.idx.b32 %r370|%p253, %r7158, %r6046, %r6075, %r6076;
GPGPU-Sim PTX: 84 (potential) branch divergence @  PC=0x34e8 (main.1.sm_70.ptx:2184) @%p4193 bra BB0_167;
GPGPU-Sim PTX:    immediate post dominator      @  PC=0x3550 (main.1.sm_70.ptx:2200) add.s32 %r24779, %r24779, 1;
GPGPU-Sim PTX: 85 (potential) branch divergence @  PC=0x3560 (main.1.sm_70.ptx:2202) @%p4197 bra BB0_159;
GPGPU-Sim PTX:    immediate post dominator      @  PC=0x3568 (main.1.sm_70.ptx:2204) xor.b32 %r7221, %r6037, 16;
GPGPU-Sim PTX: 86 (potential) branch divergence @  PC=0x35f0 (main.1.sm_70.ptx:2223) @%p4199 bra BB0_171;
GPGPU-Sim PTX:    immediate post dominator      @  PC=0x3658 (main.1.sm_70.ptx:2239) shfl.sync.idx.b32 %r385|%p261, %r7230, %r6045, %r6075, %r6076;
GPGPU-Sim PTX: 87 (potential) branch divergence @  PC=0x3678 (main.1.sm_70.ptx:2243) @%p4199 bra BB0_173;
GPGPU-Sim PTX:    immediate post dominator      @  PC=0x36e0 (main.1.sm_70.ptx:2259) shfl.sync.idx.b32 %r389|%p265, %r7230, %r6055, %r6075, %r6076;
GPGPU-Sim PTX: 88 (potential) branch divergence @  PC=0x3700 (main.1.sm_70.ptx:2263) @%p4199 bra BB0_175;
GPGPU-Sim PTX:    immediate post dominator      @  PC=0x3768 (main.1.sm_70.ptx:2279) shfl.sync.idx.b32 %r393|%p269, %r7230, %r6046, %r6075, %r6076;
GPGPU-Sim PTX: 89 (potential) branch divergence @  PC=0x3788 (main.1.sm_70.ptx:2283) @%p4199 bra BB0_177;
GPGPU-Sim PTX:    immediate post dominator      @  PC=0x37f0 (main.1.sm_70.ptx:2299) add.s32 %r24780, %r24780, 1;
GPGPU-Sim PTX: 90 (potential) branch divergence @  PC=0x3800 (main.1.sm_70.ptx:2301) @%p4203 bra BB0_169;
GPGPU-Sim PTX:    immediate post dominator      @  PC=0x3808 (main.1.sm_70.ptx:2303) xor.b32 %r7293, %r6037, 17;
GPGPU-Sim PTX: 91 (potential) branch divergence @  PC=0x3890 (main.1.sm_70.ptx:2322) @%p4205 bra BB0_181;
GPGPU-Sim PTX:    immediate post dominator      @  PC=0x38f8 (main.1.sm_70.ptx:2338) shfl.sync.idx.b32 %r408|%p277, %r7302, %r6045, %r6075, %r6076;
GPGPU-Sim PTX: 92 (potential) branch divergence @  PC=0x3918 (main.1.sm_70.ptx:2342) @%p4205 bra BB0_183;
GPGPU-Sim PTX:    immediate post dominator      @  PC=0x3980 (main.1.sm_70.ptx:2358) shfl.sync.idx.b32 %r412|%p281, %r7302, %r6055, %r6075, %r6076;
GPGPU-Sim PTX: 93 (potential) branch divergence @  PC=0x39a0 (main.1.sm_70.ptx:2362) @%p4205 bra BB0_185;
GPGPU-Sim PTX:    immediate post dominator      @  PC=0x3a08 (main.1.sm_70.ptx:2378) shfl.sync.idx.b32 %r416|%p285, %r7302, %r6046, %r6075, %r6076;
GPGPU-Sim PTX: 94 (potential) branch divergence @  PC=0x3a28 (main.1.sm_70.ptx:2382) @%p4205 bra BB0_187;
GPGPU-Sim PTX:    immediate post dominator      @  PC=0x3a90 (main.1.sm_70.ptx:2398) add.s32 %r24781, %r24781, 1;
GPGPU-Sim PTX: 95 (potential) branch divergence @  PC=0x3aa0 (main.1.sm_70.ptx:2400) @%p4209 bra BB0_179;
GPGPU-Sim PTX:    immediate post dominator      @  PC=0x3aa8 (main.1.sm_70.ptx:2402) xor.b32 %r7365, %r6037, 18;
GPGPU-Sim PTX: 96 (potential) branch divergence @  PC=0x3b30 (main.1.sm_70.ptx:2421) @%p4211 bra BB0_191;
GPGPU-Sim PTX:    immediate post dominator      @  PC=0x3b98 (main.1.sm_70.ptx:2437) shfl.sync.idx.b32 %r431|%p293, %r7374, %r6045, %r6075, %r6076;
GPGPU-Sim PTX: 97 (potential) branch divergence @  PC=0x3bb8 (main.1.sm_70.ptx:2441) @%p4211 bra BB0_193;
GPGPU-Sim PTX:    immediate post dominator      @  PC=0x3c20 (main.1.sm_70.ptx:2457) shfl.sync.idx.b32 %r435|%p297, %r7374, %r6055, %r6075, %r6076;
GPGPU-Sim PTX: 98 (potential) branch divergence @  PC=0x3c40 (main.1.sm_70.ptx:2461) @%p4211 bra BB0_195;
GPGPU-Sim PTX:    immediate post dominator      @  PC=0x3ca8 (main.1.sm_70.ptx:2477) shfl.sync.idx.b32 %r439|%p301, %r7374, %r6046, %r6075, %r6076;
GPGPU-Sim PTX: 99 (potential) branch divergence @  PC=0x3cc8 (main.1.sm_70.ptx:2481) @%p4211 bra BB0_197;
GPGPU-Sim PTX:    immediate post dominator      @  PC=0x3d30 (main.1.sm_70.ptx:2497) add.s32 %r24782, %r24782, 1;
GPGPU-Sim PTX: 100 (potential) branch divergence @  PC=0x3d40 (main.1.sm_70.ptx:2499) @%p4215 bra BB0_189;
GPGPU-Sim PTX:    immediate post dominator      @  PC=0x3d48 (main.1.sm_70.ptx:2501) xor.b32 %r7437, %r6037, 19;
GPGPU-Sim PTX: 101 (potential) branch divergence @  PC=0x3dd0 (main.1.sm_70.ptx:2520) @%p4217 bra BB0_201;
GPGPU-Sim PTX:    immediate post dominator      @  PC=0x3e38 (main.1.sm_70.ptx:2536) shfl.sync.idx.b32 %r454|%p309, %r7446, %r6045, %r6075, %r6076;
GPGPU-Sim PTX: 102 (potential) branch divergence @  PC=0x3e58 (main.1.sm_70.ptx:2540) @%p4217 bra BB0_203;
GPGPU-Sim PTX:    immediate post dominator      @  PC=0x3ec0 (main.1.sm_70.ptx:2556) shfl.sync.idx.b32 %r458|%p313, %r7446, %r6055, %r6075, %r6076;
GPGPU-Sim PTX: 103 (potential) branch divergence @  PC=0x3ee0 (main.1.sm_70.ptx:2560) @%p4217 bra BB0_205;
GPGPU-Sim PTX:    immediate post dominator      @  PC=0x3f48 (main.1.sm_70.ptx:2576) shfl.sync.idx.b32 %r462|%p317, %r7446, %r6046, %r6075, %r6076;
GPGPU-Sim PTX: 104 (potential) branch divergence @  PC=0x3f68 (main.1.sm_70.ptx:2580) @%p4217 bra BB0_207;
GPGPU-Sim PTX:    immediate post dominator      @  PC=0x3fd0 (main.1.sm_70.ptx:2596) add.s32 %r24783, %r24783, 1;
GPGPU-Sim PTX: 105 (potential) branch divergence @  PC=0x3fe0 (main.1.sm_70.ptx:2598) @%p4221 bra BB0_199;
GPGPU-Sim PTX:    immediate post dominator      @  PC=0x3fe8 (main.1.sm_70.ptx:2600) xor.b32 %r7509, %r6037, 20;
GPGPU-Sim PTX: 106 (potential) branch divergence @  PC=0x4070 (main.1.sm_70.ptx:2619) @%p4223 bra BB0_211;
GPGPU-Sim PTX:    immediate post dominator      @  PC=0x40d8 (main.1.sm_70.ptx:2635) shfl.sync.idx.b32 %r477|%p325, %r7518, %r6045, %r6075, %r6076;
GPGPU-Sim PTX: 107 (potential) branch divergence @  PC=0x40f8 (main.1.sm_70.ptx:2639) @%p4223 bra BB0_213;
GPGPU-Sim PTX:    immediate post dominator      @  PC=0x4160 (main.1.sm_70.ptx:2655) shfl.sync.idx.b32 %r481|%p329, %r7518, %r6055, %r6075, %r6076;
GPGPU-Sim PTX: 108 (potential) branch divergence @  PC=0x4180 (main.1.sm_70.ptx:2659) @%p4223 bra BB0_215;
GPGPU-Sim PTX:    immediate post dominator      @  PC=0x41e8 (main.1.sm_70.ptx:2675) shfl.sync.idx.b32 %r485|%p333, %r7518, %r6046, %r6075, %r6076;
GPGPU-Sim PTX: 109 (potential) branch divergence @  PC=0x4208 (main.1.sm_70.ptx:2679) @%p4223 bra BB0_217;
GPGPU-Sim PTX:    immediate post dominator      @  PC=0x4270 (main.1.sm_70.ptx:2695) add.s32 %r24784, %r24784, 1;
GPGPU-Sim PTX: 110 (potential) branch divergence @  PC=0x4280 (main.1.sm_70.ptx:2697) @%p4227 bra BB0_209;
GPGPU-Sim PTX:    immediate post dominator      @  PC=0x4288 (main.1.sm_70.ptx:2699) xor.b32 %r7581, %r6037, 21;
GPGPU-Sim PTX: 111 (potential) branch divergence @  PC=0x4310 (main.1.sm_70.ptx:2718) @%p4229 bra BB0_221;
GPGPU-Sim PTX:    immediate post dominator      @  PC=0x4378 (main.1.sm_70.ptx:2734) shfl.sync.idx.b32 %r500|%p341, %r7590, %r6045, %r6075, %r6076;
GPGPU-Sim PTX: 112 (potential) branch divergence @  PC=0x4398 (main.1.sm_70.ptx:2738) @%p4229 bra BB0_223;
GPGPU-Sim PTX:    immediate post dominator      @  PC=0x4400 (main.1.sm_70.ptx:2754) shfl.sync.idx.b32 %r504|%p345, %r7590, %r6055, %r6075, %r6076;
GPGPU-Sim PTX: 113 (potential) branch divergence @  PC=0x4420 (main.1.sm_70.ptx:2758) @%p4229 bra BB0_225;
GPGPU-Sim PTX:    immediate post dominator      @  PC=0x4488 (main.1.sm_70.ptx:2774) shfl.sync.idx.b32 %r508|%p349, %r7590, %r6046, %r6075, %r6076;
GPGPU-Sim PTX: 114 (potential) branch divergence @  PC=0x44a8 (main.1.sm_70.ptx:2778) @%p4229 bra BB0_227;
GPGPU-Sim PTX:    immediate post dominator      @  PC=0x4510 (main.1.sm_70.ptx:2794) add.s32 %r24785, %r24785, 1;
GPGPU-Sim PTX: 115 (potential) branch divergence @  PC=0x4520 (main.1.sm_70.ptx:2796) @%p4233 bra BB0_219;
GPGPU-Sim PTX:    immediate post dominator      @  PC=0x4528 (main.1.sm_70.ptx:2798) xor.b32 %r7653, %r6037, 22;
GPGPU-Sim PTX: 116 (potential) branch divergence @  PC=0x45b0 (main.1.sm_70.ptx:2817) @%p4235 bra BB0_231;
GPGPU-Sim PTX:    immediate post dominator      @  PC=0x4618 (main.1.sm_70.ptx:2833) shfl.sync.idx.b32 %r523|%p357, %r7662, %r6045, %r6075, %r6076;
GPGPU-Sim PTX: 117 (potential) branch divergence @  PC=0x4638 (main.1.sm_70.ptx:2837) @%p4235 bra BB0_233;
GPGPU-Sim PTX:    immediate post dominator      @  PC=0x46a0 (main.1.sm_70.ptx:2853) shfl.sync.idx.b32 %r527|%p361, %r7662, %r6055, %r6075, %r6076;
GPGPU-Sim PTX: 118 (potential) branch divergence @  PC=0x46c0 (main.1.sm_70.ptx:2857) @%p4235 bra BB0_235;
GPGPU-Sim PTX:    immediate post dominator      @  PC=0x4728 (main.1.sm_70.ptx:2873) shfl.sync.idx.b32 %r531|%p365, %r7662, %r6046, %r6075, %r6076;
GPGPU-Sim PTX: 119 (potential) branch divergence @  PC=0x4748 (main.1.sm_70.ptx:2877) @%p4235 bra BB0_237;
GPGPU-Sim PTX:    immediate post dominator      @  PC=0x47b0 (main.1.sm_70.ptx:2893) add.s32 %r24786, %r24786, 1;
GPGPU-Sim PTX: 120 (potential) branch divergence @  PC=0x47c0 (main.1.sm_70.ptx:2895) @%p4239 bra BB0_229;
GPGPU-Sim PTX:    immediate post dominator      @  PC=0x47c8 (main.1.sm_70.ptx:2897) xor.b32 %r7725, %r6037, 23;
GPGPU-Sim PTX: 121 (potential) branch divergence @  PC=0x4850 (main.1.sm_70.ptx:2916) @%p4241 bra BB0_241;
GPGPU-Sim PTX:    immediate post dominator      @  PC=0x48b8 (main.1.sm_70.ptx:2932) shfl.sync.idx.b32 %r546|%p373, %r7734, %r6045, %r6075, %r6076;
GPGPU-Sim PTX: 122 (potential) branch divergence @  PC=0x48d8 (main.1.sm_70.ptx:2936) @%p4241 bra BB0_243;
GPGPU-Sim PTX:    immediate post dominator      @  PC=0x4940 (main.1.sm_70.ptx:2952) shfl.sync.idx.b32 %r550|%p377, %r7734, %r6055, %r6075, %r6076;
GPGPU-Sim PTX: 123 (potential) branch divergence @  PC=0x4960 (main.1.sm_70.ptx:2956) @%p4241 bra BB0_245;
GPGPU-Sim PTX:    immediate post dominator      @  PC=0x49c8 (main.1.sm_70.ptx:2972) shfl.sync.idx.b32 %r554|%p381, %r7734, %r6046, %r6075, %r6076;
GPGPU-Sim PTX: 124 (potential) branch divergence @  PC=0x49e8 (main.1.sm_70.ptx:2976) @%p4241 bra BB0_247;
GPGPU-Sim PTX:    immediate post dominator      @  PC=0x4a50 (main.1.sm_70.ptx:2992) add.s32 %r24787, %r24787, 1;
GPGPU-Sim PTX: 125 (potential) branch divergence @  PC=0x4a60 (main.1.sm_70.ptx:2994) @%p4245 bra BB0_239;
GPGPU-Sim PTX:    immediate post dominator      @  PC=0x4a68 (main.1.sm_70.ptx:2996) xor.b32 %r7797, %r6037, 24;
GPGPU-Sim PTX: 126 (potential) branch divergence @  PC=0x4af0 (main.1.sm_70.ptx:3015) @%p4247 bra BB0_251;
GPGPU-Sim PTX:    immediate post dominator      @  PC=0x4b58 (main.1.sm_70.ptx:3031) shfl.sync.idx.b32 %r569|%p389, %r7806, %r6045, %r6075, %r6076;
GPGPU-Sim PTX: 127 (potential) branch divergence @  PC=0x4b78 (main.1.sm_70.ptx:3035) @%p4247 bra BB0_253;
GPGPU-Sim PTX:    immediate post dominator      @  PC=0x4be0 (main.1.sm_70.ptx:3051) shfl.sync.idx.b32 %r573|%p393, %r7806, %r6055, %r6075, %r6076;
GPGPU-Sim PTX: 128 (potential) branch divergence @  PC=0x4c00 (main.1.sm_70.ptx:3055) @%p4247 bra BB0_255;
GPGPU-Sim PTX:    immediate post dominator      @  PC=0x4c68 (main.1.sm_70.ptx:3071) shfl.sync.idx.b32 %r577|%p397, %r7806, %r6046, %r6075, %r6076;
GPGPU-Sim PTX: 129 (potential) branch divergence @  PC=0x4c88 (main.1.sm_70.ptx:3075) @%p4247 bra BB0_257;
GPGPU-Sim PTX:    immediate post dominator      @  PC=0x4cf0 (main.1.sm_70.ptx:3091) add.s32 %r24788, %r24788, 1;
GPGPU-Sim PTX: 130 (potential) branch divergence @  PC=0x4d00 (main.1.sm_70.ptx:3093) @%p4251 bra BB0_249;
GPGPU-Sim PTX:    immediate post dominator      @  PC=0x4d08 (main.1.sm_70.ptx:3095) xor.b32 %r7869, %r6037, 25;
GPGPU-Sim PTX: 131 (potential) branch divergence @  PC=0x4d90 (main.1.sm_70.ptx:3114) @%p4253 bra BB0_261;
GPGPU-Sim PTX:    immediate post dominator      @  PC=0x4df8 (main.1.sm_70.ptx:3130) shfl.sync.idx.b32 %r592|%p405, %r7878, %r6045, %r6075, %r6076;
GPGPU-Sim PTX: 132 (potential) branch divergence @  PC=0x4e18 (main.1.sm_70.ptx:3134) @%p4253 bra BB0_263;
GPGPU-Sim PTX:    immediate post dominator      @  PC=0x4e80 (main.1.sm_70.ptx:3150) shfl.sync.idx.b32 %r596|%p409, %r7878, %r6055, %r6075, %r6076;
GPGPU-Sim PTX: 133 (potential) branch divergence @  PC=0x4ea0 (main.1.sm_70.ptx:3154) @%p4253 bra BB0_265;
GPGPU-Sim PTX:    immediate post dominator      @  PC=0x4f08 (main.1.sm_70.ptx:3170) shfl.sync.idx.b32 %r600|%p413, %r7878, %r6046, %r6075, %r6076;
GPGPU-Sim PTX: 134 (potential) branch divergence @  PC=0x4f28 (main.1.sm_70.ptx:3174) @%p4253 bra BB0_267;
GPGPU-Sim PTX:    immediate post dominator      @  PC=0x4f90 (main.1.sm_70.ptx:3190) add.s32 %r24789, %r24789, 1;
GPGPU-Sim PTX: 135 (potential) branch divergence @  PC=0x4fa0 (main.1.sm_70.ptx:3192) @%p4257 bra BB0_259;
GPGPU-Sim PTX:    immediate post dominator      @  PC=0x4fa8 (main.1.sm_70.ptx:3194) xor.b32 %r7941, %r6037, 26;
GPGPU-Sim PTX: 136 (potential) branch divergence @  PC=0x5030 (main.1.sm_70.ptx:3213) @%p4259 bra BB0_271;
GPGPU-Sim PTX:    immediate post dominator      @  PC=0x5098 (main.1.sm_70.ptx:3229) shfl.sync.idx.b32 %r615|%p421, %r7950, %r6045, %r6075, %r6076;
GPGPU-Sim PTX: 137 (potential) branch divergence @  PC=0x50b8 (main.1.sm_70.ptx:3233) @%p4259 bra BB0_273;
GPGPU-Sim PTX:    immediate post dominator      @  PC=0x5120 (main.1.sm_70.ptx:3249) shfl.sync.idx.b32 %r619|%p425, %r7950, %r6055, %r6075, %r6076;
GPGPU-Sim PTX: 138 (potential) branch divergence @  PC=0x5140 (main.1.sm_70.ptx:3253) @%p4259 bra BB0_275;
GPGPU-Sim PTX:    immediate post dominator      @  PC=0x51a8 (main.1.sm_70.ptx:3269) shfl.sync.idx.b32 %r623|%p429, %r7950, %r6046, %r6075, %r6076;
GPGPU-Sim PTX: 139 (potential) branch divergence @  PC=0x51c8 (main.1.sm_70.ptx:3273) @%p4259 bra BB0_277;
GPGPU-Sim PTX:    immediate post dominator      @  PC=0x5230 (main.1.sm_70.ptx:3289) add.s32 %r24790, %r24790, 1;
GPGPU-Sim PTX: 140 (potential) branch divergence @  PC=0x5240 (main.1.sm_70.ptx:3291) @%p4263 bra BB0_269;
GPGPU-Sim PTX:    immediate post dominator      @  PC=0x5248 (main.1.sm_70.ptx:3293) xor.b32 %r8013, %r6037, 27;
GPGPU-Sim PTX: 141 (potential) branch divergence @  PC=0x52d0 (main.1.sm_70.ptx:3312) @%p4265 bra BB0_281;
GPGPU-Sim PTX:    immediate post dominator      @  PC=0x5338 (main.1.sm_70.ptx:3328) shfl.sync.idx.b32 %r638|%p437, %r8022, %r6045, %r6075, %r6076;
GPGPU-Sim PTX: 142 (potential) branch divergence @  PC=0x5358 (main.1.sm_70.ptx:3332) @%p4265 bra BB0_283;
GPGPU-Sim PTX:    immediate post dominator      @  PC=0x53c0 (main.1.sm_70.ptx:3348) shfl.sync.idx.b32 %r642|%p441, %r8022, %r6055, %r6075, %r6076;
GPGPU-Sim PTX: 143 (potential) branch divergence @  PC=0x53e0 (main.1.sm_70.ptx:3352) @%p4265 bra BB0_285;
GPGPU-Sim PTX:    immediate post dominator      @  PC=0x5448 (main.1.sm_70.ptx:3368) shfl.sync.idx.b32 %r646|%p445, %r8022, %r6046, %r6075, %r6076;
GPGPU-Sim PTX: 144 (potential) branch divergence @  PC=0x5468 (main.1.sm_70.ptx:3372) @%p4265 bra BB0_287;
GPGPU-Sim PTX:    immediate post dominator      @  PC=0x54d0 (main.1.sm_70.ptx:3388) add.s32 %r24791, %r24791, 1;
GPGPU-Sim PTX: 145 (potential) branch divergence @  PC=0x54e0 (main.1.sm_70.ptx:3390) @%p4269 bra BB0_279;
GPGPU-Sim PTX:    immediate post dominator      @  PC=0x54e8 (main.1.sm_70.ptx:3392) xor.b32 %r8085, %r6037, 28;
GPGPU-Sim PTX: 146 (potential) branch divergence @  PC=0x5570 (main.1.sm_70.ptx:3411) @%p4271 bra BB0_291;
GPGPU-Sim PTX:    immediate post dominator      @  PC=0x55d8 (main.1.sm_70.ptx:3427) shfl.sync.idx.b32 %r661|%p453, %r8094, %r6045, %r6075, %r6076;
GPGPU-Sim PTX: 147 (potential) branch divergence @  PC=0x55f8 (main.1.sm_70.ptx:3431) @%p4271 bra BB0_293;
GPGPU-Sim PTX:    immediate post dominator      @  PC=0x5660 (main.1.sm_70.ptx:3447) shfl.sync.idx.b32 %r665|%p457, %r8094, %r6055, %r6075, %r6076;
GPGPU-Sim PTX: 148 (potential) branch divergence @  PC=0x5680 (main.1.sm_70.ptx:3451) @%p4271 bra BB0_295;
GPGPU-Sim PTX:    immediate post dominator      @  PC=0x56e8 (main.1.sm_70.ptx:3467) shfl.sync.idx.b32 %r669|%p461, %r8094, %r6046, %r6075, %r6076;
GPGPU-Sim PTX: 149 (potential) branch divergence @  PC=0x5708 (main.1.sm_70.ptx:3471) @%p4271 bra BB0_297;
GPGPU-Sim PTX:    immediate post dominator      @  PC=0x5770 (main.1.sm_70.ptx:3487) add.s32 %r24792, %r24792, 1;
GPGPU-Sim PTX: 150 (potential) branch divergence @  PC=0x5780 (main.1.sm_70.ptx:3489) @%p4275 bra BB0_289;
GPGPU-Sim PTX:    immediate post dominator      @  PC=0x5788 (main.1.sm_70.ptx:3491) xor.b32 %r8157, %r6037, 29;
GPGPU-Sim PTX: 151 (potential) branch divergence @  PC=0x5810 (main.1.sm_70.ptx:3510) @%p4277 bra BB0_301;
GPGPU-Sim PTX:    immediate post dominator      @  PC=0x5878 (main.1.sm_70.ptx:3526) shfl.sync.idx.b32 %r684|%p469, %r8166, %r6045, %r6075, %r6076;
GPGPU-Sim PTX: 152 (potential) branch divergence @  PC=0x5898 (main.1.sm_70.ptx:3530) @%p4277 bra BB0_303;
GPGPU-Sim PTX:    immediate post dominator      @  PC=0x5900 (main.1.sm_70.ptx:3546) shfl.sync.idx.b32 %r688|%p473, %r8166, %r6055, %r6075, %r6076;
GPGPU-Sim PTX: 153 (potential) branch divergence @  PC=0x5920 (main.1.sm_70.ptx:3550) @%p4277 bra BB0_305;
GPGPU-Sim PTX:    immediate post dominator      @  PC=0x5988 (main.1.sm_70.ptx:3566) shfl.sync.idx.b32 %r692|%p477, %r8166, %r6046, %r6075, %r6076;
GPGPU-Sim PTX: 154 (potential) branch divergence @  PC=0x59a8 (main.1.sm_70.ptx:3570) @%p4277 bra BB0_307;
GPGPU-Sim PTX:    immediate post dominator      @  PC=0x5a10 (main.1.sm_70.ptx:3586) add.s32 %r24793, %r24793, 1;
GPGPU-Sim PTX: 155 (potential) branch divergence @  PC=0x5a20 (main.1.sm_70.ptx:3588) @%p4281 bra BB0_299;
GPGPU-Sim PTX:    immediate post dominator      @  PC=0x5a28 (main.1.sm_70.ptx:3590) xor.b32 %r8229, %r6037, 30;
GPGPU-Sim PTX: 156 (potential) branch divergence @  PC=0x5ab0 (main.1.sm_70.ptx:3609) @%p4283 bra BB0_311;
GPGPU-Sim PTX:    immediate post dominator      @  PC=0x5b18 (main.1.sm_70.ptx:3625) shfl.sync.idx.b32 %r707|%p485, %r8238, %r6045, %r6075, %r6076;
GPGPU-Sim PTX: 157 (potential) branch divergence @  PC=0x5b38 (main.1.sm_70.ptx:3629) @%p4283 bra BB0_313;
GPGPU-Sim PTX:    immediate post dominator      @  PC=0x5ba0 (main.1.sm_70.ptx:3645) shfl.sync.idx.b32 %r711|%p489, %r8238, %r6055, %r6075, %r6076;
GPGPU-Sim PTX: 158 (potential) branch divergence @  PC=0x5bc0 (main.1.sm_70.ptx:3649) @%p4283 bra BB0_315;
GPGPU-Sim PTX:    immediate post dominator      @  PC=0x5c28 (main.1.sm_70.ptx:3665) shfl.sync.idx.b32 %r715|%p493, %r8238, %r6046, %r6075, %r6076;
GPGPU-Sim PTX: 159 (potential) branch divergence @  PC=0x5c48 (main.1.sm_70.ptx:3669) @%p4283 bra BB0_317;
GPGPU-Sim PTX:    immediate post dominator      @  PC=0x5cb0 (main.1.sm_70.ptx:3685) add.s32 %r24794, %r24794, 1;
GPGPU-Sim PTX: 160 (potential) branch divergence @  PC=0x5cc0 (main.1.sm_70.ptx:3687) @%p4287 bra BB0_309;
GPGPU-Sim PTX:    immediate post dominator      @  PC=0x5cc8 (main.1.sm_70.ptx:3689) xor.b32 %r8301, %r6037, 31;
GPGPU-Sim PTX: 161 (potential) branch divergence @  PC=0x5d50 (main.1.sm_70.ptx:3708) @%p4289 bra BB0_321;
GPGPU-Sim PTX:    immediate post dominator      @  PC=0x5db8 (main.1.sm_70.ptx:3724) shfl.sync.idx.b32 %r730|%p501, %r8310, %r6045, %r6075, %r6076;
GPGPU-Sim PTX: 162 (potential) branch divergence @  PC=0x5dd8 (main.1.sm_70.ptx:3728) @%p4289 bra BB0_323;
GPGPU-Sim PTX:    immediate post dominator      @  PC=0x5e40 (main.1.sm_70.ptx:3744) shfl.sync.idx.b32 %r734|%p505, %r8310, %r6055, %r6075, %r6076;
GPGPU-Sim PTX: 163 (potential) branch divergence @  PC=0x5e60 (main.1.sm_70.ptx:3748) @%p4289 bra BB0_325;
GPGPU-Sim PTX:    immediate post dominator      @  PC=0x5ec8 (main.1.sm_70.ptx:3764) shfl.sync.idx.b32 %r738|%p509, %r8310, %r6046, %r6075, %r6076;
GPGPU-Sim PTX: 164 (potential) branch divergence @  PC=0x5ee8 (main.1.sm_70.ptx:3768) @%p4289 bra BB0_327;
GPGPU-Sim PTX:    immediate post dominator      @  PC=0x5f50 (main.1.sm_70.ptx:3784) add.s32 %r24795, %r24795, 1;
GPGPU-Sim PTX: 165 (potential) branch divergence @  PC=0x5f60 (main.1.sm_70.ptx:3786) @%p4293 bra BB0_319;
GPGPU-Sim PTX:    immediate post dominator      @  PC=0x5f68 (main.1.sm_70.ptx:3788) xor.b32 %r8373, %r6037, 32;
GPGPU-Sim PTX: 166 (potential) branch divergence @  PC=0x5ff0 (main.1.sm_70.ptx:3807) @%p4295 bra BB0_331;
GPGPU-Sim PTX:    immediate post dominator      @  PC=0x6058 (main.1.sm_70.ptx:3823) shfl.sync.idx.b32 %r753|%p517, %r8382, %r6045, %r6075, %r6076;
GPGPU-Sim PTX: 167 (potential) branch divergence @  PC=0x6078 (main.1.sm_70.ptx:3827) @%p4295 bra BB0_333;
GPGPU-Sim PTX:    immediate post dominator      @  PC=0x60e0 (main.1.sm_70.ptx:3843) shfl.sync.idx.b32 %r757|%p521, %r8382, %r6055, %r6075, %r6076;
GPGPU-Sim PTX: 168 (potential) branch divergence @  PC=0x6100 (main.1.sm_70.ptx:3847) @%p4295 bra BB0_335;
GPGPU-Sim PTX:    immediate post dominator      @  PC=0x6168 (main.1.sm_70.ptx:3863) shfl.sync.idx.b32 %r761|%p525, %r8382, %r6046, %r6075, %r6076;
GPGPU-Sim PTX: 169 (potential) branch divergence @  PC=0x6188 (main.1.sm_70.ptx:3867) @%p4295 bra BB0_337;
GPGPU-Sim PTX:    immediate post dominator      @  PC=0x61f0 (main.1.sm_70.ptx:3883) add.s32 %r24796, %r24796, 1;
GPGPU-Sim PTX: 170 (potential) branch divergence @  PC=0x6200 (main.1.sm_70.ptx:3885) @%p4299 bra BB0_329;
GPGPU-Sim PTX:    immediate post dominator      @  PC=0x6208 (main.1.sm_70.ptx:3887) xor.b32 %r8445, %r6037, 33;
GPGPU-Sim PTX: 171 (potential) branch divergence @  PC=0x6290 (main.1.sm_70.ptx:3906) @%p4301 bra BB0_341;
GPGPU-Sim PTX:    immediate post dominator      @  PC=0x62f8 (main.1.sm_70.ptx:3922) shfl.sync.idx.b32 %r776|%p533, %r8454, %r6045, %r6075, %r6076;
GPGPU-Sim PTX: 172 (potential) branch divergence @  PC=0x6318 (main.1.sm_70.ptx:3926) @%p4301 bra BB0_343;
GPGPU-Sim PTX:    immediate post dominator      @  PC=0x6380 (main.1.sm_70.ptx:3942) shfl.sync.idx.b32 %r780|%p537, %r8454, %r6055, %r6075, %r6076;
GPGPU-Sim PTX: 173 (potential) branch divergence @  PC=0x63a0 (main.1.sm_70.ptx:3946) @%p4301 bra BB0_345;
GPGPU-Sim PTX:    immediate post dominator      @  PC=0x6408 (main.1.sm_70.ptx:3962) shfl.sync.idx.b32 %r784|%p541, %r8454, %r6046, %r6075, %r6076;
GPGPU-Sim PTX: 174 (potential) branch divergence @  PC=0x6428 (main.1.sm_70.ptx:3966) @%p4301 bra BB0_347;
GPGPU-Sim PTX:    immediate post dominator      @  PC=0x6490 (main.1.sm_70.ptx:3982) add.s32 %r24797, %r24797, 1;
GPGPU-Sim PTX: 175 (potential) branch divergence @  PC=0x64a0 (main.1.sm_70.ptx:3984) @%p4305 bra BB0_339;
GPGPU-Sim PTX:    immediate post dominator      @  PC=0x64a8 (main.1.sm_70.ptx:3986) xor.b32 %r8517, %r6037, 34;
GPGPU-Sim PTX: 176 (potential) branch divergence @  PC=0x6530 (main.1.sm_70.ptx:4005) @%p4307 bra BB0_351;
GPGPU-Sim PTX:    immediate post dominator      @  PC=0x6598 (main.1.sm_70.ptx:4021) shfl.sync.idx.b32 %r799|%p549, %r8526, %r6045, %r6075, %r6076;
GPGPU-Sim PTX: 177 (potential) branch divergence @  PC=0x65b8 (main.1.sm_70.ptx:4025) @%p4307 bra BB0_353;
GPGPU-Sim PTX:    immediate post dominator      @  PC=0x6620 (main.1.sm_70.ptx:4041) shfl.sync.idx.b32 %r803|%p553, %r8526, %r6055, %r6075, %r6076;
GPGPU-Sim PTX: 178 (potential) branch divergence @  PC=0x6640 (main.1.sm_70.ptx:4045) @%p4307 bra BB0_355;
GPGPU-Sim PTX:    immediate post dominator      @  PC=0x66a8 (main.1.sm_70.ptx:4061) shfl.sync.idx.b32 %r807|%p557, %r8526, %r6046, %r6075, %r6076;
GPGPU-Sim PTX: 179 (potential) branch divergence @  PC=0x66c8 (main.1.sm_70.ptx:4065) @%p4307 bra BB0_357;
GPGPU-Sim PTX:    immediate post dominator      @  PC=0x6730 (main.1.sm_70.ptx:4081) add.s32 %r24798, %r24798, 1;
GPGPU-Sim PTX: 180 (potential) branch divergence @  PC=0x6740 (main.1.sm_70.ptx:4083) @%p4311 bra BB0_349;
GPGPU-Sim PTX:    immediate post dominator      @  PC=0x6748 (main.1.sm_70.ptx:4085) xor.b32 %r8589, %r6037, 35;
GPGPU-Sim PTX: 181 (potential) branch divergence @  PC=0x67d0 (main.1.sm_70.ptx:4104) @%p4313 bra BB0_361;
GPGPU-Sim PTX:    immediate post dominator      @  PC=0x6838 (main.1.sm_70.ptx:4120) shfl.sync.idx.b32 %r822|%p565, %r8598, %r6045, %r6075, %r6076;
GPGPU-Sim PTX: 182 (potential) branch divergence @  PC=0x6858 (main.1.sm_70.ptx:4124) @%p4313 bra BB0_363;
GPGPU-Sim PTX:    immediate post dominator      @  PC=0x68c0 (main.1.sm_70.ptx:4140) shfl.sync.idx.b32 %r826|%p569, %r8598, %r6055, %r6075, %r6076;
GPGPU-Sim PTX: 183 (potential) branch divergence @  PC=0x68e0 (main.1.sm_70.ptx:4144) @%p4313 bra BB0_365;
GPGPU-Sim PTX:    immediate post dominator      @  PC=0x6948 (main.1.sm_70.ptx:4160) shfl.sync.idx.b32 %r830|%p573, %r8598, %r6046, %r6075, %r6076;
GPGPU-Sim PTX: 184 (potential) branch divergence @  PC=0x6968 (main.1.sm_70.ptx:4164) @%p4313 bra BB0_367;
GPGPU-Sim PTX:    immediate post dominator      @  PC=0x69d0 (main.1.sm_70.ptx:4180) add.s32 %r24799, %r24799, 1;
GPGPU-Sim PTX: 185 (potential) branch divergence @  PC=0x69e0 (main.1.sm_70.ptx:4182) @%p4317 bra BB0_359;
GPGPU-Sim PTX:    immediate post dominator      @  PC=0x69e8 (main.1.sm_70.ptx:4184) xor.b32 %r8661, %r6037, 36;
GPGPU-Sim PTX: 186 (potential) branch divergence @  PC=0x6a70 (main.1.sm_70.ptx:4203) @%p4319 bra BB0_371;
GPGPU-Sim PTX:    immediate post dominator      @  PC=0x6ad8 (main.1.sm_70.ptx:4219) shfl.sync.idx.b32 %r845|%p581, %r8670, %r6045, %r6075, %r6076;
GPGPU-Sim PTX: 187 (potential) branch divergence @  PC=0x6af8 (main.1.sm_70.ptx:4223) @%p4319 bra BB0_373;
GPGPU-Sim PTX:    immediate post dominator      @  PC=0x6b60 (main.1.sm_70.ptx:4239) shfl.sync.idx.b32 %r849|%p585, %r8670, %r6055, %r6075, %r6076;
GPGPU-Sim PTX: 188 (potential) branch divergence @  PC=0x6b80 (main.1.sm_70.ptx:4243) @%p4319 bra BB0_375;
GPGPU-Sim PTX:    immediate post dominator      @  PC=0x6be8 (main.1.sm_70.ptx:4259) shfl.sync.idx.b32 %r853|%p589, %r8670, %r6046, %r6075, %r6076;
GPGPU-Sim PTX: 189 (potential) branch divergence @  PC=0x6c08 (main.1.sm_70.ptx:4263) @%p4319 bra BB0_377;
GPGPU-Sim PTX:    immediate post dominator      @  PC=0x6c70 (main.1.sm_70.ptx:4279) add.s32 %r24800, %r24800, 1;
GPGPU-Sim PTX: 190 (potential) branch divergence @  PC=0x6c80 (main.1.sm_70.ptx:4281) @%p4323 bra BB0_369;
GPGPU-Sim PTX:    immediate post dominator      @  PC=0x6c88 (main.1.sm_70.ptx:4283) xor.b32 %r8733, %r6037, 37;
GPGPU-Sim PTX: 191 (potential) branch divergence @  PC=0x6d10 (main.1.sm_70.ptx:4302) @%p4325 bra BB0_381;
GPGPU-Sim PTX:    immediate post dominator      @  PC=0x6d78 (main.1.sm_70.ptx:4318) shfl.sync.idx.b32 %r868|%p597, %r8742, %r6045, %r6075, %r6076;
GPGPU-Sim PTX: 192 (potential) branch divergence @  PC=0x6d98 (main.1.sm_70.ptx:4322) @%p4325 bra BB0_383;
GPGPU-Sim PTX:    immediate post dominator      @  PC=0x6e00 (main.1.sm_70.ptx:4338) shfl.sync.idx.b32 %r872|%p601, %r8742, %r6055, %r6075, %r6076;
GPGPU-Sim PTX: 193 (potential) branch divergence @  PC=0x6e20 (main.1.sm_70.ptx:4342) @%p4325 bra BB0_385;
GPGPU-Sim PTX:    immediate post dominator      @  PC=0x6e88 (main.1.sm_70.ptx:4358) shfl.sync.idx.b32 %r876|%p605, %r8742, %r6046, %r6075, %r6076;
GPGPU-Sim PTX: 194 (potential) branch divergence @  PC=0x6ea8 (main.1.sm_70.ptx:4362) @%p4325 bra BB0_387;
GPGPU-Sim PTX:    immediate post dominator      @  PC=0x6f10 (main.1.sm_70.ptx:4378) add.s32 %r24801, %r24801, 1;
GPGPU-Sim PTX: 195 (potential) branch divergence @  PC=0x6f20 (main.1.sm_70.ptx:4380) @%p4329 bra BB0_379;
GPGPU-Sim PTX:    immediate post dominator      @  PC=0x6f28 (main.1.sm_70.ptx:4382) xor.b32 %r8805, %r6037, 38;
GPGPU-Sim PTX: 196 (potential) branch divergence @  PC=0x6fb0 (main.1.sm_70.ptx:4401) @%p4331 bra BB0_391;
GPGPU-Sim PTX:    immediate post dominator      @  PC=0x7018 (main.1.sm_70.ptx:4417) shfl.sync.idx.b32 %r891|%p613, %r8814, %r6045, %r6075, %r6076;
GPGPU-Sim PTX: 197 (potential) branch divergence @  PC=0x7038 (main.1.sm_70.ptx:4421) @%p4331 bra BB0_393;
GPGPU-Sim PTX:    immediate post dominator      @  PC=0x70a0 (main.1.sm_70.ptx:4437) shfl.sync.idx.b32 %r895|%p617, %r8814, %r6055, %r6075, %r6076;
GPGPU-Sim PTX: 198 (potential) branch divergence @  PC=0x70c0 (main.1.sm_70.ptx:4441) @%p4331 bra BB0_395;
GPGPU-Sim PTX:    immediate post dominator      @  PC=0x7128 (main.1.sm_70.ptx:4457) shfl.sync.idx.b32 %r899|%p621, %r8814, %r6046, %r6075, %r6076;
GPGPU-Sim PTX: 199 (potential) branch divergence @  PC=0x7148 (main.1.sm_70.ptx:4461) @%p4331 bra BB0_397;
GPGPU-Sim PTX:    immediate post dominator      @  PC=0x71b0 (main.1.sm_70.ptx:4477) add.s32 %r24802, %r24802, 1;
GPGPU-Sim PTX: 200 (potential) branch divergence @  PC=0x71c0 (main.1.sm_70.ptx:4479) @%p4335 bra BB0_389;
GPGPU-Sim PTX:    immediate post dominator      @  PC=0x71c8 (main.1.sm_70.ptx:4481) xor.b32 %r8877, %r6037, 39;
GPGPU-Sim PTX: 201 (potential) branch divergence @  PC=0x7250 (main.1.sm_70.ptx:4500) @%p4337 bra BB0_401;
GPGPU-Sim PTX:    immediate post dominator      @  PC=0x72b8 (main.1.sm_70.ptx:4516) shfl.sync.idx.b32 %r914|%p629, %r8886, %r6045, %r6075, %r6076;
GPGPU-Sim PTX: 202 (potential) branch divergence @  PC=0x72d8 (main.1.sm_70.ptx:4520) @%p4337 bra BB0_403;
GPGPU-Sim PTX:    immediate post dominator      @  PC=0x7340 (main.1.sm_70.ptx:4536) shfl.sync.idx.b32 %r918|%p633, %r8886, %r6055, %r6075, %r6076;
GPGPU-Sim PTX: 203 (potential) branch divergence @  PC=0x7360 (main.1.sm_70.ptx:4540) @%p4337 bra BB0_405;
GPGPU-Sim PTX:    immediate post dominator      @  PC=0x73c8 (main.1.sm_70.ptx:4556) shfl.sync.idx.b32 %r922|%p637, %r8886, %r6046, %r6075, %r6076;
GPGPU-Sim PTX: 204 (potential) branch divergence @  PC=0x73e8 (main.1.sm_70.ptx:4560) @%p4337 bra BB0_407;
GPGPU-Sim PTX:    immediate post dominator      @  PC=0x7450 (main.1.sm_70.ptx:4576) add.s32 %r24803, %r24803, 1;
GPGPU-Sim PTX: 205 (potential) branch divergence @  PC=0x7460 (main.1.sm_70.ptx:4578) @%p4341 bra BB0_399;
GPGPU-Sim PTX:    immediate post dominator      @  PC=0x7468 (main.1.sm_70.ptx:4580) xor.b32 %r8949, %r6037, 40;
GPGPU-Sim PTX: 206 (potential) branch divergence @  PC=0x74f0 (main.1.sm_70.ptx:4599) @%p4343 bra BB0_411;
GPGPU-Sim PTX:    immediate post dominator      @  PC=0x7558 (main.1.sm_70.ptx:4615) shfl.sync.idx.b32 %r937|%p645, %r8958, %r6045, %r6075, %r6076;
GPGPU-Sim PTX: 207 (potential) branch divergence @  PC=0x7578 (main.1.sm_70.ptx:4619) @%p4343 bra BB0_413;
GPGPU-Sim PTX:    immediate post dominator      @  PC=0x75e0 (main.1.sm_70.ptx:4635) shfl.sync.idx.b32 %r941|%p649, %r8958, %r6055, %r6075, %r6076;
GPGPU-Sim PTX: 208 (potential) branch divergence @  PC=0x7600 (main.1.sm_70.ptx:4639) @%p4343 bra BB0_415;
GPGPU-Sim PTX:    immediate post dominator      @  PC=0x7668 (main.1.sm_70.ptx:4655) shfl.sync.idx.b32 %r945|%p653, %r8958, %r6046, %r6075, %r6076;
GPGPU-Sim PTX: 209 (potential) branch divergence @  PC=0x7688 (main.1.sm_70.ptx:4659) @%p4343 bra BB0_417;
GPGPU-Sim PTX:    immediate post dominator      @  PC=0x76f0 (main.1.sm_70.ptx:4675) add.s32 %r24804, %r24804, 1;
GPGPU-Sim PTX: 210 (potential) branch divergence @  PC=0x7700 (main.1.sm_70.ptx:4677) @%p4347 bra BB0_409;
GPGPU-Sim PTX:    immediate post dominator      @  PC=0x7708 (main.1.sm_70.ptx:4679) xor.b32 %r9021, %r6037, 41;
GPGPU-Sim PTX: 211 (potential) branch divergence @  PC=0x7790 (main.1.sm_70.ptx:4698) @%p4349 bra BB0_421;
GPGPU-Sim PTX:    immediate post dominator      @  PC=0x77f8 (main.1.sm_70.ptx:4714) shfl.sync.idx.b32 %r960|%p661, %r9030, %r6045, %r6075, %r6076;
GPGPU-Sim PTX: 212 (potential) branch divergence @  PC=0x7818 (main.1.sm_70.ptx:4718) @%p4349 bra BB0_423;
GPGPU-Sim PTX:    immediate post dominator      @  PC=0x7880 (main.1.sm_70.ptx:4734) shfl.sync.idx.b32 %r964|%p665, %r9030, %r6055, %r6075, %r6076;
GPGPU-Sim PTX: 213 (potential) branch divergence @  PC=0x78a0 (main.1.sm_70.ptx:4738) @%p4349 bra BB0_425;
GPGPU-Sim PTX:    immediate post dominator      @  PC=0x7908 (main.1.sm_70.ptx:4754) shfl.sync.idx.b32 %r968|%p669, %r9030, %r6046, %r6075, %r6076;
GPGPU-Sim PTX: 214 (potential) branch divergence @  PC=0x7928 (main.1.sm_70.ptx:4758) @%p4349 bra BB0_427;
GPGPU-Sim PTX:    immediate post dominator      @  PC=0x7990 (main.1.sm_70.ptx:4774) add.s32 %r24805, %r24805, 1;
GPGPU-Sim PTX: 215 (potential) branch divergence @  PC=0x79a0 (main.1.sm_70.ptx:4776) @%p4353 bra BB0_419;
GPGPU-Sim PTX:    immediate post dominator      @  PC=0x79a8 (main.1.sm_70.ptx:4778) xor.b32 %r9093, %r6037, 42;
GPGPU-Sim PTX: 216 (potential) branch divergence @  PC=0x7a30 (main.1.sm_70.ptx:4797) @%p4355 bra BB0_431;
GPGPU-Sim PTX:    immediate post dominator      @  PC=0x7a98 (main.1.sm_70.ptx:4813) shfl.sync.idx.b32 %r983|%p677, %r9102, %r6045, %r6075, %r6076;
[...]

------------------------------------------------------------------------

Row_Buffer_Locality = 0.982143
Row_Buffer_Locality_read = 0.982143
Row_Buffer_Locality_write = -nan
Bank_Level_Parallism = 1.000000
Bank_Level_Parallism_Col = 1.000000
Bank_Level_Parallism_Ready = 1.000000
write_to_read_ratio_blp_rw_average = 0.000000
GrpLevelPara = 1.000000 

BW Util details:
bwutil = 0.000189 
total_CMD = 2367666 
util_bw = 448 
Wasted_Col = 516 
Wasted_Row = 0 
Idle = 2366702 

BW Util Bottlenecks: 
RCDc_limit = 96 
RCDWRc_limit = 0 
WTRc_limit = 0 
RTWc_limit = 0 
CCDLc_limit = 420 
rwq = 0 
CCDLc_limit_alone = 420 
WTRc_limit_alone = 0 
RTWc_limit_alone = 0 

Commands details: 
total_CMD = 2367666 
n_nop = 2367210 
Read = 448 
Write = 0 
L2_Alloc = 0 
L2_WB = 0 
n_act = 8 
n_pre = 0 
n_ref = 0 
n_req = 448 
total_req = 448 

Dual Bus Interface Util: 
issued_total_row = 8 
issued_total_col = 448 
Row_Bus_Util =  0.000003 
CoL_Bus_Util = 0.000189 
Either_Row_CoL_Bus_Util = 0.000193 
Issued_on_Two_Bus_Simul_Util = 0.000000 
issued_two_Eff = 0.000000 
queue_avg = 0.001809 


dram_util_bins: 0 0 0 0 0 0 0 0 0 0
dram_eff_bins: 0 0 0 0 0 0 0 0 0 0
mrqq: max=13 avg=0.00180853
Memory Partition 29: 
Cache L2_bank_058:
MSHR contents

Cache L2_bank_059:
MSHR contents

In Dram Latency Queue (total = 0): 
DRAM[29]: 16 bks, busW=16 BL=2 CL=12, tRRD=3 tCCD=1, tRCD=12 tRAS=28 tRP=12 tRC=40
n_cmd=2367666 n_nop=2367210 n_act=8 n_pre=0 n_ref_event=0 n_req=448 n_rd=448 n_rd_L2_A=0 n_write=0 n_wr_bk=0 bw_util=0.0001892
n_activity=1300 dram_eff=0.3446
bk0: 64a 2367594i bk1: 64a 2367594i bk2: 64a 2367594i bk3: 64a 2367594i bk4: 64a 2367594i bk5: 64a 2367594i bk6: 32a 2367624i bk7: 32a 2367624i bk8: 0a 2367666i bk9: 0a 2367666i bk10: 0a 2367666i bk11: 0a 2367666i bk12: 0a 2367666i bk13: 0a 2367666i bk14: 0a 2367666i bk15: 0a 2367666i 

------------------------------------------------------------------------

Row_Buffer_Locality = 0.982143
Row_Buffer_Locality_read = 0.982143
Row_Buffer_Locality_write = -nan
Bank_Level_Parallism = 1.000000
Bank_Level_Parallism_Col = 1.000000
Bank_Level_Parallism_Ready = 1.000000
write_to_read_ratio_blp_rw_average = 0.000000
GrpLevelPara = 1.000000 

BW Util details:
bwutil = 0.000189 
total_CMD = 2367666 
util_bw = 448 
Wasted_Col = 516 
Wasted_Row = 0 
Idle = 2366702 

BW Util Bottlenecks: 
RCDc_limit = 96 
RCDWRc_limit = 0 
WTRc_limit = 0 
RTWc_limit = 0 
CCDLc_limit = 420 
rwq = 0 
CCDLc_limit_alone = 420 
WTRc_limit_alone = 0 
RTWc_limit_alone = 0 

Commands details: 
total_CMD = 2367666 
n_nop = 2367210 
Read = 448 
Write = 0 
L2_Alloc = 0 
L2_WB = 0 
n_act = 8 
n_pre = 0 
n_ref = 0 
n_req = 448 
total_req = 448 

Dual Bus Interface Util: 
issued_total_row = 8 
issued_total_col = 448 
Row_Bus_Util =  0.000003 
CoL_Bus_Util = 0.000189 
Either_Row_CoL_Bus_Util = 0.000193 
Issued_on_Two_Bus_Simul_Util = 0.000000 
issued_two_Eff = 0.000000 
queue_avg = 0.001809 


dram_util_bins: 0 0 0 0 0 0 0 0 0 0
dram_eff_bins: 0 0 0 0 0 0 0 0 0 0
mrqq: max=13 avg=0.00180853
Memory Partition 30: 
Cache L2_bank_060:
MSHR contents

Cache L2_bank_061:
MSHR contents

In Dram Latency Queue (total = 0): 
DRAM[30]: 16 bks, busW=16 BL=2 CL=12, tRRD=3 tCCD=1, tRCD=12 tRAS=28 tRP=12 tRC=40
n_cmd=2367666 n_nop=2367210 n_act=8 n_pre=0 n_ref_event=0 n_req=448 n_rd=448 n_rd_L2_A=0 n_write=0 n_wr_bk=0 bw_util=0.0001892
n_activity=1300 dram_eff=0.3446
bk0: 64a 2367596i bk1: 64a 2367595i bk2: 64a 2367596i bk3: 64a 2367595i bk4: 64a 2367596i bk5: 64a 2367595i bk6: 32a 2367625i bk7: 32a 2367624i bk8: 0a 2367666i bk9: 0a 2367666i bk10: 0a 2367666i bk11: 0a 2367666i bk12: 0a 2367666i bk13: 0a 2367666i bk14: 0a 2367666i bk15: 0a 2367666i 

------------------------------------------------------------------------

Row_Buffer_Locality = 0.982143
Row_Buffer_Locality_read = 0.982143
Row_Buffer_Locality_write = -nan
Bank_Level_Parallism = 1.000000
Bank_Level_Parallism_Col = 1.000000
Bank_Level_Parallism_Ready = 1.000000
write_to_read_ratio_blp_rw_average = 0.000000
GrpLevelPara = 1.000000 

BW Util details:
bwutil = 0.000189 
total_CMD = 2367666 
util_bw = 448 
Wasted_Col = 506 
Wasted_Row = 0 
Idle = 2366712 

BW Util Bottlenecks: 
RCDc_limit = 96 
RCDWRc_limit = 0 
WTRc_limit = 0 
RTWc_limit = 0 
CCDLc_limit = 410 
rwq = 0 
CCDLc_limit_alone = 410 
WTRc_limit_alone = 0 
RTWc_limit_alone = 0 

Commands details: 
total_CMD = 2367666 
n_nop = 2367210 
Read = 448 
Write = 0 
L2_Alloc = 0 
L2_WB = 0 
n_act = 8 
n_pre = 0 
n_ref = 0 
n_req = 448 
total_req = 448 

Dual Bus Interface Util: 
issued_total_row = 8 
issued_total_col = 448 
Row_Bus_Util =  0.000003 
CoL_Bus_Util = 0.000189 
Either_Row_CoL_Bus_Util = 0.000193 
Issued_on_Two_Bus_Simul_Util = 0.000000 
issued_two_Eff = 0.000000 
queue_avg = 0.001765 


dram_util_bins: 0 0 0 0 0 0 0 0 0 0
dram_eff_bins: 0 0 0 0 0 0 0 0 0 0
mrqq: max=13 avg=0.00176545
Memory Partition 31: 
Cache L2_bank_062:
MSHR contents

Cache L2_bank_063:
MSHR contents

In Dram Latency Queue (total = 0): 
DRAM[31]: 16 bks, busW=16 BL=2 CL=12, tRRD=3 tCCD=1, tRCD=12 tRAS=28 tRP=12 tRC=40
n_cmd=2367666 n_nop=2367210 n_act=8 n_pre=0 n_ref_event=0 n_req=448 n_rd=448 n_rd_L2_A=0 n_write=0 n_wr_bk=0 bw_util=0.0001892
n_activity=1300 dram_eff=0.3446
bk0: 64a 2367595i bk1: 64a 2367594i bk2: 64a 2367595i bk3: 64a 2367594i bk4: 64a 2367595i bk5: 64a 2367594i bk6: 32a 2367624i bk7: 32a 2367624i bk8: 0a 2367666i bk9: 0a 2367666i bk10: 0a 2367666i bk11: 0a 2367666i bk12: 0a 2367666i bk13: 0a 2367666i bk14: 0a 2367666i bk15: 0a 2367666i 

------------------------------------------------------------------------

Row_Buffer_Locality = 0.982143
Row_Buffer_Locality_read = 0.982143
Row_Buffer_Locality_write = -nan
Bank_Level_Parallism = 1.000000
Bank_Level_Parallism_Col = 1.000000
Bank_Level_Parallism_Ready = 1.000000
write_to_read_ratio_blp_rw_average = 0.000000
GrpLevelPara = 1.000000 

BW Util details:
bwutil = 0.000189 
total_CMD = 2367666 
util_bw = 448 
Wasted_Col = 513 
Wasted_Row = 0 
Idle = 2366705 

BW Util Bottlenecks: 
RCDc_limit = 96 
RCDWRc_limit = 0 
WTRc_limit = 0 
RTWc_limit = 0 
CCDLc_limit = 417 
rwq = 0 
CCDLc_limit_alone = 417 
WTRc_limit_alone = 0 
RTWc_limit_alone = 0 

Commands details: 
total_CMD = 2367666 
n_nop = 2367210 
Read = 448 
Write = 0 
L2_Alloc = 0 
L2_WB = 0 
n_act = 8 
n_pre = 0 
n_ref = 0 
n_req = 448 
total_req = 448 

Dual Bus Interface Util: 
issued_total_row = 8 
issued_total_col = 448 
Row_Bus_Util =  0.000003 
CoL_Bus_Util = 0.000189 
Either_Row_CoL_Bus_Util = 0.000193 
Issued_on_Two_Bus_Simul_Util = 0.000000 
issued_two_Eff = 0.000000 
queue_avg = 0.001724 


dram_util_bins: 0 0 0 0 0 0 0 0 0 0
dram_eff_bins: 0 0 0 0 0 0 0 0 0 0
mrqq: max=13 avg=0.00172406

========= L2 cache stats =========
L2_cache_bank[0]: Access = 550, Miss = 288, Miss_rate = 0.524, Pending_hits = 0, Reservation_fails = 0
L2_cache_bank[1]: Access = 480, Miss = 288, Miss_rate = 0.600, Pending_hits = 0, Reservation_fails = 0
L2_cache_bank[2]: Access = 480, Miss = 288, Miss_rate = 0.600, Pending_hits = 0, Reservation_fails = 0
L2_cache_bank[3]: Access = 480, Miss = 288, Miss_rate = 0.600, Pending_hits = 0, Reservation_fails = 0
L2_cache_bank[4]: Access = 592, Miss = 344, Miss_rate = 0.581, Pending_hits = 0, Reservation_fails = 0
L2_cache_bank[5]: Access = 480, Miss = 288, Miss_rate = 0.600, Pending_hits = 0, Reservation_fails = 0
L2_cache_bank[6]: Access = 480, Miss = 288, Miss_rate = 0.600, Pending_hits = 0, Reservation_fails = 0
L2_cache_bank[7]: Access = 480, Miss = 288, Miss_rate = 0.600, Pending_hits = 0, Reservation_fails = 0
L2_cache_bank[8]: Access = 480, Miss = 288, Miss_rate = 0.600, Pending_hits = 0, Reservation_fails = 0
L2_cache_bank[9]: Access = 480, Miss = 288, Miss_rate = 0.600, Pending_hits = 0, Reservation_fails = 0
L2_cache_bank[10]: Access = 480, Miss = 288, Miss_rate = 0.600, Pending_hits = 0, Reservation_fails = 0
L2_cache_bank[11]: Access = 480, Miss = 288, Miss_rate = 0.600, Pending_hits = 0, Reservation_fails = 0
L2_cache_bank[12]: Access = 480, Miss = 288, Miss_rate = 0.600, Pending_hits = 0, Reservation_fails = 0
L2_cache_bank[13]: Access = 480, Miss = 288, Miss_rate = 0.600, Pending_hits = 0, Reservation_fails = 0
L2_cache_bank[14]: Access = 480, Miss = 288, Miss_rate = 0.600, Pending_hits = 0, Reservation_fails = 0
L2_cache_bank[15]: Access = 480, Miss = 288, Miss_rate = 0.600, Pending_hits = 0, Reservation_fails = 0
L2_cache_bank[16]: Access = 480, Miss = 288, Miss_rate = 0.600, Pending_hits = 0, Reservation_fails = 0
L2_cache_bank[17]: Access = 480, Miss = 288, Miss_rate = 0.600, Pending_hits = 0, Reservation_fails = 0
L2_cache_bank[18]: Access = 480, Miss = 288, Miss_rate = 0.600, Pending_hits = 0, Reservation_fails = 0
L2_cache_bank[19]: Access = 480, Miss = 288, Miss_rate = 0.600, Pending_hits = 0, Reservation_fails = 0
L2_cache_bank[20]: Access = 480, Miss = 288, Miss_rate = 0.600, Pending_hits = 0, Reservation_fails = 0
L2_cache_bank[21]: Access = 480, Miss = 288, Miss_rate = 0.600, Pending_hits = 0, Reservation_fails = 0
L2_cache_bank[22]: Access = 480, Miss = 288, Miss_rate = 0.600, Pending_hits = 0, Reservation_fails = 0
L2_cache_bank[23]: Access = 480, Miss = 288, Miss_rate = 0.600, Pending_hits = 0, Reservation_fails = 0
L2_cache_bank[24]: Access = 480, Miss = 288, Miss_rate = 0.600, Pending_hits = 0, Reservation_fails = 0
L2_cache_bank[25]: Access = 480, Miss = 288, Miss_rate = 0.600, Pending_hits = 0, Reservation_fails = 0
L2_cache_bank[26]: Access = 480, Miss = 288, Miss_rate = 0.600, Pending_hits = 0, Reservation_fails = 0
L2_cache_bank[27]: Access = 480, Miss = 288, Miss_rate = 0.600, Pending_hits = 0, Reservation_fails = 0
L2_cache_bank[28]: Access = 492, Miss = 288, Miss_rate = 0.585, Pending_hits = 0, Reservation_fails = 0
L2_cache_bank[29]: Access = 480, Miss = 288, Miss_rate = 0.600, Pending_hits = 0, Reservation_fails = 0
L2_cache_bank[30]: Access = 523, Miss = 288, Miss_rate = 0.551, Pending_hits = 0, Reservation_fails = 0
L2_cache_bank[31]: Access = 480, Miss = 288, Miss_rate = 0.600, Pending_hits = 0, Reservation_fails = 0
L2_cache_bank[32]: Access = 560, Miss = 288, Miss_rate = 0.514, Pending_hits = 0, Reservation_fails = 0
L2_cache_bank[33]: Access = 352, Miss = 256, Miss_rate = 0.727, Pending_hits = 0, Reservation_fails = 0
L2_cache_bank[34]: Access = 584, Miss = 288, Miss_rate = 0.493, Pending_hits = 0, Reservation_fails = 0
L2_cache_bank[35]: Access = 352, Miss = 256, Miss_rate = 0.727, Pending_hits = 0, Reservation_fails = 0
L2_cache_bank[36]: Access = 592, Miss = 288, Miss_rate = 0.486, Pending_hits = 0, Reservation_fails = 0
L2_cache_bank[37]: Access = 352, Miss = 256, Miss_rate = 0.727, Pending_hits = 0, Reservation_fails = 0
L2_cache_bank[38]: Access = 592, Miss = 288, Miss_rate = 0.486, Pending_hits = 0, Reservation_fails = 0
L2_cache_bank[39]: Access = 352, Miss = 256, Miss_rate = 0.727, Pending_hits = 0, Reservation_fails = 0
L2_cache_bank[40]: Access = 592, Miss = 288, Miss_rate = 0.486, Pending_hits = 0, Reservation_fails = 0
L2_cache_bank[41]: Access = 352, Miss = 256, Miss_rate = 0.727, Pending_hits = 0, Reservation_fails = 0
L2_cache_bank[42]: Access = 592, Miss = 288, Miss_rate = 0.486, Pending_hits = 0, Reservation_fails = 0
L2_cache_bank[43]: Access = 352, Miss = 256, Miss_rate = 0.727, Pending_hits = 0, Reservation_fails = 0
L2_cache_bank[44]: Access = 592, Miss = 288, Miss_rate = 0.486, Pending_hits = 0, Reservation_fails = 0
L2_cache_bank[45]: Access = 352, Miss = 256, Miss_rate = 0.727, Pending_hits = 0, Reservation_fails = 0
L2_cache_bank[46]: Access = 592, Miss = 288, Miss_rate = 0.486, Pending_hits = 0, Reservation_fails = 0
L2_cache_bank[47]: Access = 352, Miss = 256, Miss_rate = 0.727, Pending_hits = 0, Reservation_fails = 0
L2_cache_bank[48]: Access = 480, Miss = 288, Miss_rate = 0.600, Pending_hits = 0, Reservation_fails = 0
L2_cache_bank[49]: Access = 352, Miss = 256, Miss_rate = 0.727, Pending_hits = 0, Reservation_fails = 0
L2_cache_bank[50]: Access = 480, Miss = 288, Miss_rate = 0.600, Pending_hits = 0, Reservation_fails = 0
L2_cache_bank[51]: Access = 352, Miss = 256, Miss_rate = 0.727, Pending_hits = 0, Reservation_fails = 0
L2_cache_bank[52]: Access = 480, Miss = 288, Miss_rate = 0.600, Pending_hits = 0, Reservation_fails = 0
L2_cache_bank[53]: Access = 352, Miss = 256, Miss_rate = 0.727, Pending_hits = 0, Reservation_fails = 0
L2_cache_bank[54]: Access = 480, Miss = 288, Miss_rate = 0.600, Pending_hits = 0, Reservation_fails = 0
L2_cache_bank[55]: Access = 352, Miss = 256, Miss_rate = 0.727, Pending_hits = 0, Reservation_fails = 0
L2_cache_bank[56]: Access = 480, Miss = 288, Miss_rate = 0.600, Pending_hits = 0, Reservation_fails = 0
L2_cache_bank[57]: Access = 352, Miss = 256, Miss_rate = 0.727, Pending_hits = 0, Reservation_fails = 0
L2_cache_bank[58]: Access = 480, Miss = 288, Miss_rate = 0.600, Pending_hits = 0, Reservation_fails = 0
L2_cache_bank[59]: Access = 352, Miss = 256, Miss_rate = 0.727, Pending_hits = 0, Reservation_fails = 0
L2_cache_bank[60]: Access = 480, Miss = 288, Miss_rate = 0.600, Pending_hits = 0, Reservation_fails = 0
L2_cache_bank[61]: Access = 352, Miss = 256, Miss_rate = 0.727, Pending_hits = 0, Reservation_fails = 0
L2_cache_bank[62]: Access = 480, Miss = 288, Miss_rate = 0.600, Pending_hits = 0, Reservation_fails = 0
L2_cache_bank[63]: Access = 352, Miss = 256, Miss_rate = 0.727, Pending_hits = 0, Reservation_fails = 0
L2_total_cache_accesses = 29765
L2_total_cache_misses = 17976
L2_total_cache_miss_rate = 0.6039
L2_total_cache_pending_hits = 0
L2_total_cache_reservation_fails = 0
L2_total_cache_breakdown:
	L2_cache_stats_breakdown[GLOBAL_ACC_R][HIT] = 981
	L2_cache_stats_breakdown[GLOBAL_ACC_R][HIT_RESERVED] = 0
	L2_cache_stats_breakdown[GLOBAL_ACC_R][MISS] = 3584
	L2_cache_stats_breakdown[GLOBAL_ACC_R][RESERVATION_FAIL] = 0
	L2_cache_stats_breakdown[GLOBAL_ACC_R][SECTOR_MISS] = 10752
	L2_cache_stats_breakdown[LOCAL_ACC_R][HIT] = 0
	L2_cache_stats_breakdown[LOCAL_ACC_R][HIT_RESERVED] = 0
	L2_cache_stats_breakdown[LOCAL_ACC_R][MISS] = 0
	L2_cache_stats_breakdown[LOCAL_ACC_R][RESERVATION_FAIL] = 0
	L2_cache_stats_breakdown[LOCAL_ACC_R][SECTOR_MISS] = 0
	L2_cache_stats_breakdown[CONST_ACC_R][HIT] = 0
	L2_cache_stats_breakdown[CONST_ACC_R][HIT_RESERVED] = 0
	L2_cache_stats_breakdown[CONST_ACC_R][MISS] = 0
	L2_cache_stats_breakdown[CONST_ACC_R][RESERVATION_FAIL] = 0
	L2_cache_stats_breakdown[CONST_ACC_R][SECTOR_MISS] = 0
	L2_cache_stats_breakdown[TEXTURE_ACC_R][HIT] = 0
	L2_cache_stats_breakdown[TEXTURE_ACC_R][HIT_RESERVED] = 0
	L2_cache_stats_breakdown[TEXTURE_ACC_R][MISS] = 0
	L2_cache_stats_breakdown[TEXTURE_ACC_R][RESERVATION_FAIL] = 0
	L2_cache_stats_breakdown[TEXTURE_ACC_R][SECTOR_MISS] = 0
	L2_cache_stats_breakdown[GLOBAL_ACC_W][HIT] = 56
	L2_cache_stats_breakdown[GLOBAL_ACC_W][HIT_RESERVED] = 0
	L2_cache_stats_breakdown[GLOBAL_ACC_W][MISS] = 1
	L2_cache_stats_breakdown[GLOBAL_ACC_W][RESERVATION_FAIL] = 0
	L2_cache_stats_breakdown[GLOBAL_ACC_W][SECTOR_MISS] = 55
	L2_cache_stats_breakdown[LOCAL_ACC_W][HIT] = 10752
	L2_cache_stats_breakdown[LOCAL_ACC_W][HIT_RESERVED] = 0
	L2_cache_stats_breakdown[LOCAL_ACC_W][MISS] = 896
	L2_cache_stats_breakdown[LOCAL_ACC_W][RESERVATION_FAIL] = 0
	L2_cache_stats_breakdown[LOCAL_ACC_W][SECTOR_MISS] = 2688
	L2_cache_stats_breakdown[L1_WRBK_ACC][HIT] = 0
	L2_cache_stats_breakdown[L1_WRBK_ACC][HIT_RESERVED] = 0
	L2_cache_stats_breakdown[L1_WRBK_ACC][MISS] = 0
	L2_cache_stats_breakdown[L1_WRBK_ACC][RESERVATION_FAIL] = 0
	L2_cache_stats_breakdown[L1_WRBK_ACC][SECTOR_MISS] = 0
	L2_cache_stats_breakdown[L2_WRBK_ACC][HIT] = 0
	L2_cache_stats_breakdown[L2_WRBK_ACC][HIT_RESERVED] = 0
	L2_cache_stats_breakdown[L2_WRBK_ACC][MISS] = 0
	L2_cache_stats_breakdown[L2_WRBK_ACC][RESERVATION_FAIL] = 0
	L2_cache_stats_breakdown[L2_WRBK_ACC][SECTOR_MISS] = 0
	L2_cache_stats_breakdown[INST_ACC_R][HIT] = 0
	L2_cache_stats_breakdown[INST_ACC_R][HIT_RESERVED] = 0
	L2_cache_stats_breakdown[INST_ACC_R][MISS] = 0
	L2_cache_stats_breakdown[INST_ACC_R][RESERVATION_FAIL] = 0
	L2_cache_stats_breakdown[INST_ACC_R][SECTOR_MISS] = 0
	L2_cache_stats_breakdown[L1_WR_ALLOC_R][HIT] = 0
	L2_cache_stats_breakdown[L1_WR_ALLOC_R][HIT_RESERVED] = 0
	L2_cache_stats_breakdown[L1_WR_ALLOC_R][MISS] = 0
	L2_cache_stats_breakdown[L1_WR_ALLOC_R][RESERVATION_FAIL] = 0
	L2_cache_stats_breakdown[L1_WR_ALLOC_R][SECTOR_MISS] = 0
	L2_cache_stats_breakdown[L2_WR_ALLOC_R][HIT] = 0
	L2_cache_stats_breakdown[L2_WR_ALLOC_R][HIT_RESERVED] = 0
	L2_cache_stats_breakdown[L2_WR_ALLOC_R][MISS] = 0
	L2_cache_stats_breakdown[L2_WR_ALLOC_R][RESERVATION_FAIL] = 0
	L2_cache_stats_breakdown[L2_WR_ALLOC_R][SECTOR_MISS] = 0
	L2_cache_stats_breakdown[GLOBAL_ACC_R][TOTAL_ACCESS] = 15317
	L2_cache_stats_breakdown[GLOBAL_ACC_W][TOTAL_ACCESS] = 112
	L2_cache_stats_breakdown[LOCAL_ACC_W][TOTAL_ACCESS] = 14336
L2_total_cache_reservation_fail_breakdown:
L2_cache_data_port_util = 0.000
L2_cache_fill_port_util = 0.000

icnt_total_pkts_mem_to_simt=29765
icnt_total_pkts_simt_to_mem=29765
LD_mem_lat_dist  0 0 0 0 0 0 0 0 0 0 0 0 0 0 0 0 0 0 0 0 0 0 0 0 0 0 0
ST_mem_lat_dist  0 0 0 0 0 0 0 0 0 0 0 0 0 0 0 0 0 0 0 0 0 0 0 0 0 0 0
----------------------------Interconnect-DETAILS--------------------------------
Req_Network_injected_packets_num = 29765
Req_Network_cycles = 3153176
Req_Network_injected_packets_per_cycle =       0.0094 
Req_Network_conflicts_per_cycle =       0.0097
Req_Network_conflicts_per_cycle_util =       1.1903
Req_Bank_Level_Parallism =       1.1567
Req_Network_in_buffer_full_per_cycle =       0.0000
Req_Network_in_buffer_avg_util =       0.0106
Req_Network_out_buffer_full_per_cycle =       0.0000
Req_Network_out_buffer_avg_util =       0.0001

Reply_Network_injected_packets_num = 29765
Reply_Network_cycles = 3153176
Reply_Network_injected_packets_per_cycle =        0.0094
Reply_Network_conflicts_per_cycle =        0.0005
Reply_Network_conflicts_per_cycle_util =       0.0741
Reply_Bank_Level_Parallism =       1.3289
Reply_Network_in_buffer_full_per_cycle =       0.0000
Reply_Network_in_buffer_avg_util =       0.0000
Reply_Network_out_buffer_full_per_cycle =       0.0000
Reply_Network_out_buffer_avg_util =       0.0001
----------------------------END-of-Interconnect-DETAILS-------------------------


gpgpu_simulation_time = 0 days, 3 hrs, 5 min, 10 sec (11110 sec)
gpgpu_simulation_rate = 38026 (inst/sec)
gpgpu_simulation_rate = 283 (cycle/sec)
gpgpu_silicon_slowdown = 4000000x
GPGPU-Sim: detected inactive GPU simulation thread
GPGPU-Sim PTX: Setting up arguments for 4 bytes starting at 0x7ffddb0af69c..
GPGPU-Sim PTX: Setting up arguments for 8 bytes starting at 0x7ffddb0af690..
GPGPU-Sim PTX: Setting up arguments for 8 bytes starting at 0x7ffddb0af688..
GPGPU-Sim PTX: Setting up arguments for 8 bytes starting at 0x7ffddb0af680..
GPGPU-Sim PTX: Setting up arguments for 4 bytes starting at 0x7ffddb0af698..

GPGPU-Sim PTX: cudaLaunch for 0x0x4123e6 (mode=performance simulation) on stream 1
GPGPU-Sim PTX: PDOM analysis already done for _Z25ethash_calculate_dag_itemjP8hash64_tmS0_j 
GPGPU-Sim PTX: pushing kernel '_Z25ethash_calculate_dag_itemjP8hash64_tmS0_j' to stream 1, gridDim= (4,1,1) blockDim = (256,1,1) 
GPGPU-Sim: synchronize waiting for inactive GPU simulation
GPGPU-Sim API: Stream Manager State
GPGPU-Sim API:    stream 1 has 1 operations
GPGPU-Sim API:       0 :  stream operation kernel
GPGPU-Sim uArch: Shader 28 bind to kernel 8 '_Z25ethash_calculate_dag_itemjP8hash64_tmS0_j'
GPGPU-Sim: Reconfigure L1 cache to 128KB
GPGPU-Sim uArch: Shader 29 bind to kernel 8 '_Z25ethash_calculate_dag_itemjP8hash64_tmS0_j'
GPGPU-Sim uArch: Shader 30 bind to kernel 8 '_Z25ethash_calculate_dag_itemjP8hash64_tmS0_j'
GPGPU-Sim uArch: Shader 31 bind to kernel 8 '_Z25ethash_calculate_dag_itemjP8hash64_tmS0_j'
