

        *** GPGPU-Sim Simulator Version 4.0.0  [build gpgpu-sim_git-commit-ffe0a1a00e984ecce9bf36e17ab94c4de0de8108_modified_0.0] ***


GPGPU-Sim PTX: simulation mode 0 (can change with PTX_SIM_MODE_FUNC environment variable:
               1=functional simulation only, 0=detailed performance simulator)
GPGPU-Sim PTX: overriding embedded ptx with ptx file (PTX_SIM_USE_PTX_FILE is set)
GPGPU-Sim: Configuration options:

-save_embedded_ptx                      0 # saves ptx files embedded in binary as <n>.ptx
-keep                                   0 # keep intermediate files created by GPGPU-Sim when interfacing with external programs
-gpgpu_ptx_save_converted_ptxplus                    0 # Saved converted ptxplus to a file
-gpgpu_occupancy_sm_number                   70 # The SM number to pass to ptxas when getting register usage for computing GPU occupancy. This parameter is required in the config.
-ptx_opcode_latency_int      4,13,4,5,145,21 # Opcode latencies for integers <ADD,MAX,MUL,MAD,DIV,SHFL>Default 1,1,19,25,145,32
-ptx_opcode_latency_fp          4,13,4,5,39 # Opcode latencies for single precision floating points <ADD,MAX,MUL,MAD,DIV>Default 1,1,1,1,30
-ptx_opcode_latency_dp         8,19,8,8,330 # Opcode latencies for double precision floating points <ADD,MAX,MUL,MAD,DIV>Default 8,8,8,8,335
-ptx_opcode_latency_sfu                  100 # Opcode latencies for SFU instructionsDefault 8
-ptx_opcode_latency_tesnor                   64 # Opcode latencies for Tensor instructionsDefault 64
-ptx_opcode_initiation_int          2,2,2,2,8,4 # Opcode initiation intervals for integers <ADD,MAX,MUL,MAD,DIV,SHFL>Default 1,1,4,4,32,4
-ptx_opcode_initiation_fp            2,2,2,2,4 # Opcode initiation intervals for single precision floating points <ADD,MAX,MUL,MAD,DIV>Default 1,1,1,1,5
-ptx_opcode_initiation_dp          4,4,4,4,130 # Opcode initiation intervals for double precision floating points <ADD,MAX,MUL,MAD,DIV>Default 8,8,8,8,130
-ptx_opcode_initiation_sfu                    8 # Opcode initiation intervals for sfu instructionsDefault 8
-ptx_opcode_initiation_tensor                   64 # Opcode initiation intervals for tensor instructionsDefault 64
-cdp_latency         7200,8000,100,12000,1600 # CDP API latency <cudaStreamCreateWithFlags, cudaGetParameterBufferV2_init_perWarp, cudaGetParameterBufferV2_perKernel, cudaLaunchDeviceV2_init_perWarp, cudaLaunchDevicV2_perKernel>Default 7200,8000,100,12000,1600
-network_mode                           2 # Interconnection network mode
-inter_config_file                   mesh # Interconnection network config file
-icnt_in_buffer_limit                  512 # in_buffer_limit
-icnt_out_buffer_limit                  512 # out_buffer_limit
-icnt_subnets                           2 # subnets
-icnt_arbiter_algo                      1 # arbiter_algo
-icnt_verbose                           0 # inct_verbose
-icnt_grant_cycles                      1 # grant_cycles
-gpgpu_ptx_use_cuobjdump                    1 # Use cuobjdump to extract ptx and sass from binaries
-gpgpu_experimental_lib_support                    0 # Try to extract code from cuda libraries [Broken because of unknown cudaGetExportTable]
-checkpoint_option                      0 #  checkpointing flag (0 = no checkpoint)
-checkpoint_kernel                      1 #  checkpointing during execution of which kernel (1- 1st kernel)
-checkpoint_CTA                         0 #  checkpointing after # of CTA (< less than total CTA)
-resume_option                          0 #  resume flag (0 = no resume)
-resume_kernel                          0 #  Resume from which kernel (1= 1st kernel)
-resume_CTA                             0 #  resume from which CTA 
-checkpoint_CTA_t                       0 #  resume from which CTA 
-checkpoint_insn_Y                      0 #  resume from which CTA 
-gpgpu_ptx_convert_to_ptxplus                    0 # Convert SASS (native ISA) to ptxplus and run ptxplus
-gpgpu_ptx_force_max_capability                   70 # Force maximum compute capability
-gpgpu_ptx_inst_debug_to_file                    0 # Dump executed instructions' debug information to file
-gpgpu_ptx_inst_debug_file       inst_debug.txt # Executed instructions' debug output file
-gpgpu_ptx_inst_debug_thread_uid                    1 # Thread UID for executed instructions' debug output
-gpgpu_n_mem_for_l2wb_pcommit                   32 # number of memory modules (e.g. memory controllers) in gpu
-gpgpu_n_sub_partition_per_mchannel_for_l2wb_pcommit                    2 # number of memory subpartition in each memory module
-gpgpu_dl2_bsize_for_l2wb_pcommit                  128 # default 128 bytes
-gpgpu_simd_model                       1 # 1 = post-dominator
-gpgpu_shader_core_pipeline              2048:32 # shader core pipeline config, i.e., {<nthread>:<warpsize>}
-gpgpu_tex_cache:l1  N:4:128:256,L:R:m:N:L,T:512:8,128:2 # per-shader L1 texture cache  (READ-ONLY) config  {<nsets>:<bsize>:<assoc>,<rep>:<wr>:<alloc>:<wr_alloc>,<mshr>:<N>:<merge>,<mq>:<rf>}
-gpgpu_const_cache:l1 N:128:64:8,L:R:f:N:L,S:2:64,4 # per-shader L1 constant memory cache  (READ-ONLY) config  {<nsets>:<bsize>:<assoc>,<rep>:<wr>:<alloc>:<wr_alloc>,<mshr>:<N>:<merge>,<mq>} 
-gpgpu_cache:il1     N:64:128:16,L:R:f:N:L,S:2:48,4 # shader L1 instruction cache config  {<nsets>:<bsize>:<assoc>,<rep>:<wr>:<alloc>:<wr_alloc>,<mshr>:<N>:<merge>,<mq>} 
-gpgpu_cache:dl1     S:1:128:256,L:L:s:N:L,A:256:8,16:0,32 # per-shader L1 data cache config  {<nsets>:<bsize>:<assoc>,<rep>:<wr>:<alloc>:<wr_alloc>,<mshr>:<N>:<merge>,<mq> | none}
-gpgpu_l1_banks                         4 # The number of L1 cache banks
-gpgpu_l1_banks_byte_interleaving                   32 # l1 banks byte interleaving granularity
-gpgpu_l1_banks_hashing_function                    0 # l1 banks hashing function
-gpgpu_l1_latency                      20 # L1 Hit Latency
-gpgpu_smem_latency                    20 # smem Latency
-gpgpu_cache:dl1PrefL1                 none # per-shader L1 data cache config  {<nsets>:<bsize>:<assoc>,<rep>:<wr>:<alloc>:<wr_alloc>,<mshr>:<N>:<merge>,<mq> | none}
-gpgpu_cache:dl1PrefShared                 none # per-shader L1 data cache config  {<nsets>:<bsize>:<assoc>,<rep>:<wr>:<alloc>:<wr_alloc>,<mshr>:<N>:<merge>,<mq> | none}
-gpgpu_gmem_skip_L1D                    0 # global memory access skip L1D cache (implements -Xptxas -dlcm=cg, default=no skip)
-gpgpu_perfect_mem                      0 # enable perfect memory mode (no cache miss)
-n_regfile_gating_group                    4 # group of lanes that should be read/written together)
-gpgpu_clock_gated_reg_file                    0 # enable clock gated reg file for power calculations
-gpgpu_clock_gated_lanes                    0 # enable clock gated lanes for power calculations
-gpgpu_shader_registers                65536 # Number of registers per shader core. Limits number of concurrent CTAs. (default 8192)
-gpgpu_registers_per_block                65536 # Maximum number of registers per CTA. (default 8192)
-gpgpu_ignore_resources_limitation                    0 # gpgpu_ignore_resources_limitation (default 0)
-gpgpu_shader_cta                      32 # Maximum number of concurrent CTAs in shader (default 8)
-gpgpu_num_cta_barriers                   16 # Maximum number of named barriers per CTA (default 16)
-gpgpu_n_clusters                      80 # number of processing clusters
-gpgpu_n_cores_per_cluster                    1 # number of simd cores per cluster
-gpgpu_n_cluster_ejection_buffer_size                   32 # number of packets in ejection buffer
-gpgpu_n_ldst_response_buffer_size                    2 # number of response packets in ld/st unit ejection buffer
-gpgpu_shmem_per_block                65536 # Size of shared memory per thread block or CTA (default 48kB)
-gpgpu_shmem_size                   98304 # Size of shared memory per shader core (default 16kB)
-gpgpu_adaptive_cache_config            536870913 # adaptive_cache_config
-gpgpu_shmem_sizeDefault                98304 # Size of shared memory per shader core (default 16kB)
-gpgpu_shmem_size_PrefL1                16384 # Size of shared memory per shader core (default 16kB)
-gpgpu_shmem_size_PrefShared                16384 # Size of shared memory per shader core (default 16kB)
-gpgpu_shmem_num_banks                   32 # Number of banks in the shared memory in each shader core (default 16)
-gpgpu_shmem_limited_broadcast                    0 # Limit shared memory to do one broadcast per cycle (default on)
-gpgpu_shmem_warp_parts                    1 # Number of portions a warp is divided into for shared memory bank conflict check 
-gpgpu_mem_unit_ports                    1 # The number of memory transactions allowed per core cycle
-gpgpu_shmem_warp_parts                    1 # Number of portions a warp is divided into for shared memory bank conflict check 
-gpgpu_warpdistro_shader                   -1 # Specify which shader core to collect the warp size distribution from
-gpgpu_warp_issue_shader                    0 # Specify which shader core to collect the warp issue distribution from
-gpgpu_local_mem_map                    1 # Mapping from local memory space address to simulated GPU physical address space (default = enabled)
-gpgpu_num_reg_banks                   16 # Number of register banks (default = 8)
-gpgpu_reg_bank_use_warp_id                    0 # Use warp ID in mapping registers to banks (default = off)
-gpgpu_sub_core_model                    1 # Sub Core Volta/Pascal model (default = off)
-gpgpu_enable_specialized_operand_collector                    0 # enable_specialized_operand_collector
-gpgpu_operand_collector_num_units_sp                    4 # number of collector units (default = 4)
-gpgpu_operand_collector_num_units_dp                    0 # number of collector units (default = 0)
-gpgpu_operand_collector_num_units_sfu                    4 # number of collector units (default = 4)
-gpgpu_operand_collector_num_units_int                    0 # number of collector units (default = 0)
-gpgpu_operand_collector_num_units_tensor_core                    4 # number of collector units (default = 4)
-gpgpu_operand_collector_num_units_mem                    2 # number of collector units (default = 2)
-gpgpu_operand_collector_num_units_gen                    8 # number of collector units (default = 0)
-gpgpu_operand_collector_num_in_ports_sp                    1 # number of collector unit in ports (default = 1)
-gpgpu_operand_collector_num_in_ports_dp                    0 # number of collector unit in ports (default = 0)
-gpgpu_operand_collector_num_in_ports_sfu                    1 # number of collector unit in ports (default = 1)
-gpgpu_operand_collector_num_in_ports_int                    0 # number of collector unit in ports (default = 0)
-gpgpu_operand_collector_num_in_ports_tensor_core                    1 # number of collector unit in ports (default = 1)
-gpgpu_operand_collector_num_in_ports_mem                    1 # number of collector unit in ports (default = 1)
-gpgpu_operand_collector_num_in_ports_gen                    8 # number of collector unit in ports (default = 0)
-gpgpu_operand_collector_num_out_ports_sp                    1 # number of collector unit in ports (default = 1)
-gpgpu_operand_collector_num_out_ports_dp                    0 # number of collector unit in ports (default = 0)
-gpgpu_operand_collector_num_out_ports_sfu                    1 # number of collector unit in ports (default = 1)
-gpgpu_operand_collector_num_out_ports_int                    0 # number of collector unit in ports (default = 0)
-gpgpu_operand_collector_num_out_ports_tensor_core                    1 # number of collector unit in ports (default = 1)
-gpgpu_operand_collector_num_out_ports_mem                    1 # number of collector unit in ports (default = 1)
-gpgpu_operand_collector_num_out_ports_gen                    8 # number of collector unit in ports (default = 0)
-gpgpu_coalesce_arch                   60 # Coalescing arch (GT200 = 13, Fermi = 20)
-gpgpu_num_sched_per_core                    4 # Number of warp schedulers per core
-gpgpu_max_insn_issue_per_warp                    1 # Max number of instructions that can be issued per warp in one cycle by scheduler (either 1 or 2)
-gpgpu_dual_issue_diff_exec_units                    1 # should dual issue use two different execution unit resources (Default = 1)
-gpgpu_simt_core_sim_order                    1 # Select the simulation order of cores in a cluster (0=Fix, 1=Round-Robin)
-gpgpu_pipeline_widths 4,4,4,4,4,4,4,4,4,4,8,4,4 # Pipeline widths ID_OC_SP,ID_OC_DP,ID_OC_INT,ID_OC_SFU,ID_OC_MEM,OC_EX_SP,OC_EX_DP,OC_EX_INT,OC_EX_SFU,OC_EX_MEM,EX_WB,ID_OC_TENSOR_CORE,OC_EX_TENSOR_CORE
-gpgpu_tensor_core_avail                    1 # Tensor Core Available (default=0)
-gpgpu_num_sp_units                     4 # Number of SP units (default=1)
-gpgpu_num_dp_units                     4 # Number of DP units (default=0)
-gpgpu_num_int_units                    4 # Number of INT units (default=0)
-gpgpu_num_sfu_units                    4 # Number of SF units (default=1)
-gpgpu_num_tensor_core_units                    4 # Number of tensor_core units (default=1)
-gpgpu_num_mem_units                    1 # Number if ldst units (default=1) WARNING: not hooked up to anything
-gpgpu_scheduler                      gto # Scheduler configuration: < lrr | gto | two_level_active > If two_level_active:<num_active_warps>:<inner_prioritization>:<outer_prioritization>For complete list of prioritization values see shader.h enum scheduler_prioritization_typeDefault: gto
-gpgpu_concurrent_kernel_sm                    0 # Support concurrent kernels on a SM (default = disabled)
-gpgpu_perfect_inst_const_cache                    1 # perfect inst and const cache mode, so all inst and const hits in the cache(default = disabled)
-gpgpu_inst_fetch_throughput                    4 # the number of fetched intruction per warp each cycle
-gpgpu_reg_file_port_throughput                    2 # the number ports of the register file
-specialized_unit_1         0,4,4,4,4,BRA # specialized unit config {<enabled>,<num_units>:<latency>:<initiation>,<ID_OC_SPEC>:<OC_EX_SPEC>,<NAME>}
-specialized_unit_2         0,4,4,4,4,BRA # specialized unit config {<enabled>,<num_units>:<latency>:<initiation>,<ID_OC_SPEC>:<OC_EX_SPEC>,<NAME>}
-specialized_unit_3         0,4,4,4,4,BRA # specialized unit config {<enabled>,<num_units>:<latency>:<initiation>,<ID_OC_SPEC>:<OC_EX_SPEC>,<NAME>}
-specialized_unit_4         0,4,4,4,4,BRA # specialized unit config {<enabled>,<num_units>:<latency>:<initiation>,<ID_OC_SPEC>:<OC_EX_SPEC>,<NAME>}
-specialized_unit_5         0,4,4,4,4,BRA # specialized unit config {<enabled>,<num_units>:<latency>:<initiation>,<ID_OC_SPEC>:<OC_EX_SPEC>,<NAME>}
-specialized_unit_6         0,4,4,4,4,BRA # specialized unit config {<enabled>,<num_units>:<latency>:<initiation>,<ID_OC_SPEC>:<OC_EX_SPEC>,<NAME>}
-specialized_unit_7         0,4,4,4,4,BRA # specialized unit config {<enabled>,<num_units>:<latency>:<initiation>,<ID_OC_SPEC>:<OC_EX_SPEC>,<NAME>}
-specialized_unit_8         0,4,4,4,4,BRA # specialized unit config {<enabled>,<num_units>:<latency>:<initiation>,<ID_OC_SPEC>:<OC_EX_SPEC>,<NAME>}
-gpgpu_perf_sim_memcpy                    1 # Fill the L2 cache on memcpy
-gpgpu_simple_dram_model                    0 # simple_dram_model with fixed latency and BW
-gpgpu_dram_scheduler                    1 # 0 = fifo, 1 = FR-FCFS (defaul)
-gpgpu_dram_partition_queues          64:64:64:64 # i2$:$2d:d2$:$2i
-l2_ideal                               0 # Use a ideal L2 cache that always hit
-gpgpu_cache:dl2     S:32:128:24,L:B:m:L:P,A:192:4,32:0,32 # unified banked L2 data cache config  {<nsets>:<bsize>:<assoc>,<rep>:<wr>:<alloc>:<wr_alloc>,<mshr>:<N>:<merge>,<mq>}
-gpgpu_cache:dl2_texture_only                    0 # L2 cache used for texture only
-gpgpu_n_mem                           32 # number of memory modules (e.g. memory controllers) in gpu
-gpgpu_n_sub_partition_per_mchannel                    2 # number of memory subpartition in each memory module
-gpgpu_n_mem_per_ctrlr                    1 # number of memory chips per memory controller
-gpgpu_memlatency_stat                   14 # track and display latency statistics 0x2 enables MC, 0x4 enables queue logs
-gpgpu_frfcfs_dram_sched_queue_size                   64 # 0 = unlimited (default); # entries per chip
-gpgpu_dram_return_queue_size                  192 # 0 = unlimited (default); # entries per chip
-gpgpu_dram_buswidth                   16 # default = 4 bytes (8 bytes per cycle at DDR)
-gpgpu_dram_burst_length                    2 # Burst length of each DRAM request (default = 4 data bus cycle)
-dram_data_command_freq_ratio                    2 # Frequency ratio between DRAM data bus and command bus (default = 2 times, i.e. DDR)
-gpgpu_dram_timing_opt nbk=16:CCD=1:RRD=3:RCD=12:RAS=28:RP=12:RC=40: CL=12:WL=2:CDLR=3:WR=10:nbkgrp=4:CCDL=2:RTPL=3 # DRAM timing parameters = {nbk:tCCD:tRRD:tRCD:tRAS:tRP:tRC:CL:WL:tCDLR:tWR:nbkgrp:tCCDL:tRTPL}
-gpgpu_l2_rop_latency                  160 # ROP queue latency (default 85)
-dram_latency                         150 # DRAM latency (default 30)
-dram_write_latency                   150 # DRAM write latency (default 100)
-dram_dual_bus_interface                    1 # dual_bus_interface (default = 0) 
-dram_bnk_indexing_policy                    0 # dram_bnk_indexing_policy (0 = normal indexing, 1 = Xoring with the higher bits) (Default = 0)
-dram_bnkgrp_indexing_policy                    1 # dram_bnkgrp_indexing_policy (0 = take higher bits, 1 = take lower bits) (Default = 0)
-dram_seperate_write_queue_enable                    0 # Seperate_Write_Queue_Enable
-dram_write_queue_size             32:28:16 # Write_Queue_Size
-dram_elimnate_rw_turnaround                    0 # elimnate_rw_turnaround i.e set tWTR and tRTW = 0
-icnt_flit_size                        40 # icnt_flit_size
-gpgpu_mem_addr_mapping dramid@8;00000000.00000000.00000000.00000000.0000RRRR.RRRRRRRR.RBBBCCCB.CCCSSSSS # mapping memory address to dram model {dramid@<start bit>;<memory address map>}
-gpgpu_mem_addr_test                    0 # run sweep test to check address mapping for aliased address
-gpgpu_mem_address_mask                    1 # 0 = old addressing mask, 1 = new addressing mask, 2 = new add. mask + flipped bank sel and chip sel bits
-gpgpu_memory_partition_indexing                    0 # 0 = no indexing, 1 = bitwise xoring, 2 = IPoly, 3 = custom indexing
-gpuwattch_xml_file         gpuwattch.xml # GPUWattch XML file
-power_simulation_enabled                    0 # Turn on power simulator (1=On, 0=Off)
-power_per_cycle_dump                    0 # Dump detailed power output each cycle
-power_trace_enabled                    0 # produce a file for the power trace (1=On, 0=Off)
-power_trace_zlevel                     6 # Compression level of the power trace output log (0=no comp, 9=highest)
-steady_power_levels_enabled                    0 # produce a file for the steady power levels (1=On, 0=Off)
-steady_state_definition                  8:4 # allowed deviation:number of samples
-gpgpu_max_cycle                        0 # terminates gpu simulation early (0 = no limit)
-gpgpu_max_insn                         0 # terminates gpu simulation early (0 = no limit)
-gpgpu_max_cta                          0 # terminates gpu simulation early (0 = no limit)
-gpgpu_max_completed_cta                 1000 # terminates gpu simulation early (0 = no limit)
-gpgpu_runtime_stat                   500 # display runtime statistics such as dram utilization {<freq>:<flag>}
-liveness_message_freq                    1 # Minimum number of seconds between simulation liveness messages (0 = always print)
-gpgpu_compute_capability_major                    7 # Major compute capability version number
-gpgpu_compute_capability_minor                    0 # Minor compute capability version number
-gpgpu_flush_l1_cache                    1 # Flush L1 cache at the end of each kernel call
-gpgpu_flush_l2_cache                    0 # Flush L2 cache at the end of each kernel call
-gpgpu_deadlock_detect                    1 # Stop the simulation at deadlock (1=on (default), 0=off)
-gpgpu_ptx_instruction_classification                    0 # if enabled will classify ptx instruction types per kernel (Max 255 kernels now)
-gpgpu_ptx_sim_mode                     0 # Select between Performance (default) or Functional simulation (1)
-gpgpu_clock_domains 1132.0:1132.0:1132.0:850.0 # Clock Domain Frequencies in MhZ {<Core Clock>:<ICNT Clock>:<L2 Clock>:<DRAM Clock>}
-gpgpu_max_concurrent_kernel                    8 # maximum kernels that can run concurrently on GPU
-gpgpu_cflog_interval                    0 # Interval between each snapshot in control flow logger
-visualizer_enabled               200f3ff8827e85c83ff3eefb99f59c8c  /home/pli11/Videos/parboil_benchmark/parboil/benchmarks/lbm/build/nvm_default/lbm
Extracting PTX file and ptxas options    1: lbm.1.sm_70.ptx -arch=sm_70
Extracting PTX file and ptxas options    2: lbm.2.sm_70.ptx -arch=sm_70
      0 # Turn on visualizer output (1=On, 0=Off)
-visualizer_outputfile                 NULL # Specifies the output log file for visualizer
-visualizer_zlevel                      6 # Compression level of the visualizer output log (0=no comp, 9=highest)
-gpgpu_stack_size_limit                 1024 # GPU thread stack size
-gpgpu_heap_size_limit              8388608 # GPU malloc heap size 
-gpgpu_runtime_sync_depth_limit                    2 # GPU device runtime synchronize depth
-gpgpu_runtime_pending_launch_count_limit                 2048 # GPU device runtime pending launch count
-trace_enabled                          0 # Turn on traces
-trace_components                    none # comma seperated list of traces to enable. Complete list found in trace_streams.tup. Default none
-trace_sampling_core                    0 # The core which is printed using CORE_DPRINTF. Default 0
-trace_sampling_memory_partition                   -1 # The memory partition which is printed using MEMPART_DPRINTF. Default -1 (i.e. all)
-enable_ptx_file_line_stats                    1 # Turn on PTX source line statistic profiling. (1 = On)
-ptx_line_stats_filename gpgpu_inst_stats.txt # Output file for PTX source line statistics.
-gpgpu_kernel_launch_latency                 5000 # Kernel launch latency in cycles. Default: 0
-gpgpu_cdp_enabled                      0 # Turn on CDP
-gpgpu_TB_launch_latency                    0 # thread block launch latency in cycles. Default: 0
DRAM Timing Options:
nbk                                    16 # number of banks
CCD                                     1 # column to column delay
RRD                                     3 # minimal delay between activation of rows in different banks
RCD                                    12 # row to column delay
RAS                                    28 # time needed to activate row
RP                                     12 # time needed to precharge (deactivate) row
RC                                     40 # row cycle time
CDLR                                    3 # switching from write to read (changes tWTR)
WR                                     10 # last data-in to row precharge
CL                                     12 # CAS latency
WL                                      2 # Write latency
nbkgrp                                  4 # number of bank groups
CCDL                                    2 # column to column delay between accesses to different bank groups
RTPL                                    3 # read to precharge delay between accesses to different bank groups
Total number of memory sub partition = 64
addr_dec_mask[CHIP]  = 0000000000001f00 	high:13 low:8
addr_dec_mask[BK]    = 00000000000e2000 	high:20 low:13
addr_dec_mask[ROW]   = 00000001fff00000 	high:33 low:20
addr_dec_mask[COL]   = 000000000001c0ff 	high:17 low:0
addr_dec_mask[BURST] = 000000000000001f 	high:5 low:0
sub_partition_id_mask = 0000000000002000
GPGPU-Sim uArch: clock freqs: 1132000000.000000:1132000000.000000:1132000000.000000:850000000.000000
GPGPU-Sim uArch: clock periods: 0.00000000088339222615:0.00000000088339222615:0.00000000088339222615:0.00000000117647058824
*** Initializing Memory Statistics ***
GPGPU-Sim uArch: performance model initialization complete.
self exe links to: /home/pli11/Videos/parboil_benchmark/parboil/benchmarks/lbm/build/nvm_default/lbm
self exe links to: /home/pli11/Videos/parboil_benchmark/parboil/benchmarks/lbm/build/nvm_default/lbm
10.1
GPGPU-Sim PTX: __cudaRegisterFatBinary, fat_cubin_handle = 1, filename=default
self exe links to: /home/pli11/Videos/parboil_benchmark/parboil/benchmarks/lbm/build/nvm_default/lbm
Running md5sum using "md5sum /home/pli11/Videos/parboil_benchmark/parboil/benchmarks/lbm/build/nvm_default/lbm "
self exe links to: /home/pli11/Videos/parboil_benchmark/parboil/benchmarks/lbm/build/nvm_default/lbm
Extracting specific PTX file named lbm.1.sm_70.ptx 
Extracting specific PTX file named lbm.2.sm_70.ptx 
self exe links to: /home/pli11/Videos/parboil_benchmark/parboil/benchmarks/lbm/build/nvm_default/lbm
self exe links to: /home/pli11/Videos/parboil_benchmark/parboil/benchmarks/lbm/build/nvm_default/lbm
10.1
GPGPU-Sim PTX: __cudaRegisterFatBinary, fat_cubin_handle = 2, filename=default
GPGPU-Sim PTX: __cudaRegisterFunction _Z32performStreamCollide_kernel_nvm2PfS_ : hostFun 0x0x405bab, fat_cubin_handle = 2
GPGPU-Sim PTX: Parsing lbm.1.sm_70.ptx
GPGPU-Sim PTX: finished parsing EMBEDDED .ptx file lbm.1.sm_70.ptx
GPGPU-Sim PTX: Parsing lbm.2.sm_70.ptx
GPGPU-Sim PTX: allocating global region for "NVM_log" from 0x100 to 0x4000100 (global memory space)
GPGPU-Sim PTX: allocating global region for "NVM_flag" from 0x4000100 to 0x4400100 (global memory space)
GPGPU-Sim PTX: instruction assembly for function '_Z32performStreamCollide_kernel_nvmgPfS_'...   done.
GPGPU-Sim PTX: instruction assembly for function '_Z32performStreamCollide_kernel_nvmiPfS_'...   done.
GPGPU-Sim PTX: instruction assembly for function '_Z32performStreamCollide_kernel_nvm3PfS_'...   done.
GPGPU-Sim PTX: instruction assembly for function '_Z32performStreamCollide_kernel_nvm4PfS_'...   done.
GPGPU-Sim PTX: instruction assembly for function '_Z32performStreamCollide_kernel_nvm5PfS_'...   done.
GPGPU-Sim PTX: instruction assembly for function '_Z32performStreamCollide_kernel_nvm6PfS_'...   done.
GPGPU-Sim PTX: instruction assembly for function '_Z27performStreamCollide_kernelPfS_'...   done.
GPGPU-Sim PTX: instruction assembly for function '_Z32performStreamCollide_kernel_nvmoPfS_'...   done.
GPGPU-Sim PTX: instruction assembly for function '_Z32performStreamCollide_kernel_nvmwPfS_'...   done.
GPGPU-Sim PTX: instruction assembly for function '_Z32performStreamCollide_kernel_nvmqPfS_'...   done.
GPGPU-Sim PTX: instruction assembly for function '_Z32performStreamCollide_kernel_nvmuPfS_'...   done.
GPGPU-Sim PTX: instruction assembly for function '_Z32performStreamCollide_kernel_nvmbPfS_'...   done.
GPGPU-Sim PTX: instruction assembly for function '_Z32performStreamCollide_kernel_nvmjPfS_'...   done.
GPGPU-Sim PTX: instruction assembly for function '_Z32performStreamCollide_kernel_nvmdPfS_'...   done.
GPGPU-Sim PTX: instruction assembly for function '_Z32performStreamCollide_kernel_nvmlPfS_'...   done.
GPGPU-Sim PTX: instruction assembly for function '_Z32performStreamCollide_kernel_nvm1PfS_'...   done.
GPGPU-Sim PTX: instruction assembly for function '_Z32performStreamCollide_kernel_nvm2PfS_'...   done.
GPGPU-Sim PTX: finished parsing EMBEDDED .ptx file lbm.2.sm_70.ptx
GPGPU-Sim PTX: loading globals with explicit initializers... 
GPGPU-Sim PTX: finished loading globals (0 bytes total).
GPGPU-Sim PTX: loading constants with explicit initializers...  done.
GPGPU-Sim PTX: Loading PTXInfo from lbm.1.sm_70.ptx
GPGPU-Sim PTX: Loading PTXInfo from lbm.2.sm_70.ptx
GPGPU-Sim PTX: Kernel '_Z32performStreamCollide_kernel_nvm2PfS_' : regs=44, lmem=0, smem=0, cmem=368
GPGPU-Sim PTX: Kernel '_Z32performStreamCollide_kernel_nvm1PfS_' : regs=44, lmem=0, smem=0, cmem=368
GPGPU-Sim PTX: Kernel '_Z32performStreamCollide_kernel_nvmlPfS_' : regs=40, lmem=0, smem=0, cmem=368
GPGPU-Sim PTX: Kernel '_Z32performStreamCollide_kernel_nvmdPfS_' : regs=40, lmem=0, smem=0, cmem=368
GPGPU-Sim PTX: Kernel '_Z32performStreamCollide_kernel_nvmjPfS_' : regs=40, lmem=0, smem=0, cmem=368
GPGPU-Sim PTX: Kernel '_Z32performStreamCollide_kernel_nvmbPfS_' : regs=40, lmem=0, smem=0, cmem=368
GPGPU-Sim PTX: Kernel '_Z32performStreamCollide_kernel_nvmuPfS_' : regs=40, lmem=0, smem=0, cmem=368
GPGPU-Sim PTX: Kernel '_Z32performStreamCollide_kernel_nvmqPfS_' : regs=40, lmem=0, smem=0, cmem=368
GPGPU-Sim PTX: Kernel '_Z32performStreamCollide_kernel_nvmwPfS_' : regs=40, lmem=0, smem=0, cmem=368
GPGPU-Sim PTX: Kernel '_Z32performStreamCollide_kernel_nvmoPfS_' : regs=40, lmem=0, smem=0, cmem=368
GPGPU-Sim PTX: Kernel '_Z27performStreamCollide_kernelPfS_' : regs=40, lmem=0, smem=0, cmem=368
GPGPU-Sim PTX: Kernel '_Z32performStreamCollide_kernel_nvm6PfS_' : regs=44, lmem=0, smem=0, cmem=368
GPGPU-Sim PTX: Kernel '_Z32performStreamCollide_kernel_nvm5PfS_' : regs=44, lmem=0, smem=0, cmem=368
GPGPU-Sim PTX: Kernel '_Z32performStreamCollide_kernel_nvm4PfS_' : regs=56, lmem=0, smem=0, cmem=368
GPGPU-Sim PTX: Kernel '_Z32performStreamCollide_kernel_nvm3PfS_' : regs=56, lmem=0, smem=0, cmem=368
GPGPU-Sim PTX: Kernel '_Z32performStreamCollide_kernel_nvmiPfS_' : regs=48, lmem=0, smem=0, cmem=368
GPGPU-Sim PTX: Kernel '_Z32performStreamCollide_kernel_nvmgPfS_' : regs=48, lmem=0, smem=0, cmem=368
GPGPU-Sim PTX: __cudaRegisterFunction _Z32performStreamCollide_kernel_nvm1PfS_ : hostFun 0x0x405a6b, fat_cubin_handle = 2
GPGPU-Sim PTX: __cudaRegisterFunction _Z32performStreamCollide_kernel_nvmlPfS_ : hostFun 0x0x40592b, fat_cubin_handle = 2
GPGPU-Sim PTX: __cudaRegisterFunction _Z32performStreamCollide_kernel_nvmdPfS_ : hostFun 0x0x4057eb, fat_cubin_handle = 2
GPGPU-Sim PTX: __cudaRegisterFunction _Z32performStreamCollide_kernel_nvmjPfS_ : hostFun 0x0x4056ab, fat_cubin_handle = 2
GPGPU-Sim PTX: __cudaRegisterFunction _Z32performStreamCollide_kernel_nvmbPfS_ : hostFun 0x0x40556b, fat_cubin_handle = 2
GPGPU-Sim PTX: __cudaRegisterFunction _Z32performStreamCollide_kernel_nvmuPfS_ : hostFun 0x0x40542b, fat_cubin_handle = 2
GPGPU-Sim PTX: __cudaRegisterFunction _Z32performStreamCollide_kernel_nvmqPfS_ : hostFun 0x0x4052eb, fat_cubin_handle = 2
GPGPU-Sim PTX: __cudaRegisterFunction _Z32performStreamCollide_kernel_nvmwPfS_ : hostFun 0x0x4051ab, fat_cubin_handle = 2
GPGPU-Sim PTX: __cudaRegisterFunction _Z32performStreamCollide_kernel_nvmoPfS_ : hostFun 0x0x40506b, fat_cubin_handle = 2
GPGPU-Sim PTX: __cudaRegisterFunction _Z27performStreamCollide_kernelPfS_ : hostFun 0x0x404f2b, fat_cubin_handle = 2
GPGPU-Sim PTX: __cudaRegisterFunction _Z32performStreamCollide_kernel_nvm6PfS_ : hostFun 0x0x404deb, fat_cubin_handle = 2
GPGPU-Sim PTX: __cudaRegisterFunction _Z32performStreamCollide_kernel_nvm5PfS_ : hostFun 0x0x404cab, fat_cubin_handle = 2
GPGPU-Sim PTX: __cudaRegisterFunction _Z32performStreamCollide_kernel_nvm4PfS_ : hostFun 0x0x404b6b, fat_cubin_handle = 2
GPGPU-Sim PTX: __cudaRegisterFunction _Z32performStreamCollide_kernel_nvm3PfS_ : hostFun 0x0x404a2b, fat_cubin_handle = 2
GPGPU-Sim PTX: __cudaRegisterFunction _Z32performStreamCollide_kernel_nvmiPfS_ : hostFun 0x0x4048eb, fat_cubin_handle = 2
GPGPU-Sim PTX: __cudaRegisterFunction _Z32performStreamCollide_kernel_nvmgPfS_ : hostFun 0x0x4047ab, fat_cubin_handle = 2
GPGPU-Sim PTX: __cudaRegisterVar: hostVar = 0x60f380; deviceAddress = NVM_log; deviceName = NVM_log
GPGPU-Sim PTX: __cudaRegisterVar: Registering const memory space of 67108864 bytes
GPGPU-Sim PTX registering global NVM_log hostVar to name mapping
GPGPU-Sim PTX: __cudaRegisterVar: hostVar = 0x460f380; deviceAddress = NVM_flag; deviceName = NVM_flag
GPGPU-Sim PTX: __cudaRegisterVar: Registering const memory space of 4194304 bytes
GPGPU-Sim PTX registering global NVM_flag hostVar to name mapping
LBM_allocateGrid: allocated 185.2 MByte
MAIN_printInfo:
	grid size      : 120 x 120 x 150 = 2.16 * 10^6 Cells
	nTimeSteps     : 3000
	result file    : /home/pli11/Videos/parboil_benchmark/parboil/benchmarks/lbm/run/long/reference.dat
	action         : store
	simulation type: lid-driven cavity
	obstacle file  : /home/pli11/Videos/parboil_benchmark/parboil/datasets/lbm/long/input/120_120_150_ldc.of

LBM_allocateGrid: allocated 185.2 MByte
LBM_allocateGrid: allocated 185.2 MByte
LBM_showGridStatistics:
	nObstacleCells:  343321 nAccelCells:   26912 nFluidCells: 1789767
	minRho:   1.0000 maxRho:   1.0000 mass: 2.160000e+06
	minU: 0.000000e+00 maxU: 0.000000e+00

event update
GPGPU-Sim: synchronize waiting for inactive GPU simulation
GPGPU-Sim API: Stream Manager State
GPGPU-Sim: detected inactive GPU simulation thread
GPGPU-Sim PTX: Setting up arguments for 8 bytes starting at 0x7ffee2bc3138..
GPGPU-Sim PTX: Setting up arguments for 8 bytes starting at 0x7ffee2bc3130..

GPGPU-Sim PTX: cudaLaunch for 0x0x404f2b (mode=performance simulation) on stream 0
GPGPU-Sim PTX: finding reconvergence points for '_Z27performStreamCollide_kernelPfS_'...
GPGPU-Sim PTX: Finding dominators for '_Z27performStreamCollide_kernelPfS_'...
GPGPU-Sim PTX: Finding immediate dominators for '_Z27performStreamCollide_kernelPfS_'...
GPGPU-Sim PTX: Finding postdominators for '_Z27performStreamCollide_kernelPfS_'...
GPGPU-Sim PTX: Finding immediate postdominators for '_Z27performStreamCollide_kernelPfS_'...
GPGPU-Sim PTX: pre-decoding instructions for '_Z27performStreamCollide_kernelPfS_'...
GPGPU-Sim PTX: reconvergence points for _Z27performStreamCollide_kernelPfS_...
GPGPU-Sim PTX:  1 (potential) branch divergence @  PC=0x45c0 (lbm.2.sm_70.ptx:2949) @%p1 bra BB6_1;
GPGPU-Sim PTX:    immediate post dominator      @  PC=0x4b58 (lbm.2.sm_70.ptx:3134) cvta.to.global.u64 %rd6, %rd1;
GPGPU-Sim PTX:  2 (potential) branch divergence @  PC=0x45c8 (lbm.2.sm_70.ptx:2950) bra.uni BB6_2;
GPGPU-Sim PTX:    immediate post dominator      @  PC=0x4620 (lbm.2.sm_70.ptx:2965) add.f32 %f58, %f219, %f217;
GPGPU-Sim PTX:  3 (potential) branch divergence @  PC=0x4618 (lbm.2.sm_70.ptx:2962) bra.uni BB6_3;
GPGPU-Sim PTX:    immediate post dominator      @  PC=0x4b58 (lbm.2.sm_70.ptx:3134) cvta.to.global.u64 %rd6, %rd1;
GPGPU-Sim PTX: ... end of reconvergence points for _Z27performStreamCollide_kernelPfS_
GPGPU-Sim PTX: ... done pre-decoding instructions for '_Z27performStreamCollide_kernelPfS_'.
GPGPU-Sim PTX: pushing kernel '_Z27performStreamCollide_kernelPfS_' to stream 0, gridDim= (120,150,1) blockDim = (120,1,1) 
GPGPU-Sim uArch: Shader 0 bind to kernel 1 '_Z27performStreamCollide_kernelPfS_'
GPGPU-Sim uArch: CTA/core = 12, limited by: regs
GPGPU-Sim: Reconfigure L1 cache to 128KB
GPGPU-Sim uArch: Shader 1 bind to kernel 1 '_Z27performStreamCollide_kernelPfS_'
GPGPU-Sim uArch: Shader 2 bind to kernel 1 '_Z27performStreamCollide_kernelPfS_'
GPGPU-Sim uArch: Shader 3 bind to kernel 1 '_Z27performStreamCollide_kernelPfS_'
GPGPU-Sim uArch: Shader 4 bind to kernel 1 '_Z27performStreamCollide_kernelPfS_'
GPGPU-Sim uArch: Shader 5 bind to kernel 1 '_Z27performStreamCollide_kernelPfS_'
GPGPU-Sim uArch: Shader 6 bind to kernel 1 '_Z27performStreamCollide_kernelPfS_'
GPGPU-Sim uArch: Shader 7 bind to kernel 1 '_Z27performStreamCollide_kernelPfS_'
GPGPU-Sim uArch: Shader 8 bind to kernel 1 '_Z27performStreamCollide_kernelPfS_'
GPGPU-Sim uArch: Shader 9 bind to kernel 1 '_Z27performStreamCollide_kernelPfS_'
GPGPU-Sim uArch: Shader 10 bind to kernel 1 '_Z27performStreamCollide_kernelPfS_'
GPGPU-Sim uArch: Shader 11 bind to kernel 1 '_Z27performStreamCollide_kernelPfS_'
GPGPU-Sim uArch: Shader 12 bind to kernel 1 '_Z27performStreamCollide_kernelPfS_'
GPGPU-Sim uArch: Shader 13 bind to kernel 1 '_Z27performStreamCollide_kernelPfS_'
GPGPU-Sim uArch: Shader 14 bind to kernel 1 '_Z27performStreamCollide_kernelPfS_'
GPGPU-Sim uArch: Shader 15 bind to kernel 1 '_Z27performStreamCollide_kernelPfS_'
GPGPU-Sim uArch: Shader 16 bind to kernel 1 '_Z27performStreamCollide_kernelPfS_'
GPGPU-Sim uArch: Shader 17 bind to kernel 1 '_Z27performStreamCollide_kernelPfS_'
GPGPU-Sim uArch: Shader 18 bind to kernel 1 '_Z27performStreamCollide_kernelPfS_'
GPGPU-Sim uArch: Shader 19 bind to kernel 1 '_Z27performStreamCollide_kernelPfS_'
GPGPU-Sim uArch: Shader 20 bind to kernel 1 '_Z27performStreamCollide_kernelPfS_'
GPGPU-Sim uArch: Shader 21 bind to kernel 1 '_Z27performStreamCollide_kernelPfS_'
GPGPU-Sim uArch: Shader 22 bind to kernel 1 '_Z27performStreamCollide_kernelPfS_'
GPGPU-Sim uArch: Shader 23 bind to kernel 1 '_Z27performStreamCollide_kernelPfS_'
GPGPU-Sim uArch: Shader 24 bind to kernel 1 '_Z27performStreamCollide_kernelPfS_'
GPGPU-Sim uArch: Shader 25 bind to kernel 1 '_Z27performStreamCollide_kernelPfS_'
GPGPU-Sim uArch: Shader 26 bind to kernel 1 '_Z27performStreamCollide_kernelPfS_'
GPGPU-Sim uArch: Shader 27 bind to kernel 1 '_Z27performStreamCollide_kernelPfS_'
GPGPU-Sim uArch: Shader 28 bind to kernel 1 '_Z27performStreamCollide_kernelPfS_'
GPGPU-Sim uArch: Shader 29 bind to kernel 1 '_Z27performStreamCollide_kernelPfS_'
GPGPU-Sim uArch: Shader 30 bind to kernel 1 '_Z27performStreamCollide_kernelPfS_'
GPGPU-Sim uArch: Shader 31 bind to kernel 1 '_Z27performStreamCollide_kernelPfS_'
GPGPU-Sim uArch: Shader 32 bind to kernel 1 '_Z27performStreamCollide_kernelPfS_'
GPGPU-Sim uArch: Shader 33 bind to kernel 1 '_Z27performStreamCollide_kernelPfS_'
GPGPU-Sim uArch: Shader 34 bind to kernel 1 '_Z27performStreamCollide_kernelPfS_'
GPGPU-Sim uArch: Shader 35 bind to kernel 1 '_Z27performStreamCollide_kernelPfS_'
GPGPU-Sim uArch: Shader 36 bind to kernel 1 '_Z27performStreamCollide_kernelPfS_'
GPGPU-Sim uArch: Shader 37 bind to kernel 1 '_Z27performStreamCollide_kernelPfS_'
GPGPU-Sim uArch: Shader 38 bind to kernel 1 '_Z27performStreamCollide_kernelPfS_'
GPGPU-Sim uArch: Shader 39 bind to kernel 1 '_Z27performStreamCollide_kernelPfS_'
GPGPU-Sim uArch: Shader 40 bind to kernel 1 '_Z27performStreamCollide_kernelPfS_'
GPGPU-Sim uArch: Shader 41 bind to kernel 1 '_Z27performStreamCollide_kernelPfS_'
GPGPU-Sim uArch: Shader 42 bind to kernel 1 '_Z27performStreamCollide_kernelPfS_'
GPGPU-Sim uArch: Shader 43 bind to kernel 1 '_Z27performStreamCollide_kernelPfS_'
GPGPU-Sim uArch: Shader 44 bind to kernel 1 '_Z27performStreamCollide_kernelPfS_'
GPGPU-Sim uArch: Shader 45 bind to kernel 1 '_Z27performStreamCollide_kernelPfS_'
GPGPU-Sim uArch: Shader 46 bind to kernel 1 '_Z27performStreamCollide_kernelPfS_'
GPGPU-Sim uArch: Shader 47 bind to kernel 1 '_Z27performStreamCollide_kernelPfS_'
GPGPU-Sim uArch: Shader 48 bind to kernel 1 '_Z27performStreamCollide_kernelPfS_'
GPGPU-Sim uArch: Shader 49 bind to kernel 1 '_Z27performStreamCollide_kernelPfS_'
GPGPU-Sim uArch: Shader 50 bind to kernel 1 '_Z27performStreamCollide_kernelPfS_'
GPGPU-Sim uArch: Shader 51 bind to kernel 1 '_Z27performStreamCollide_kernelPfS_'
GPGPU-Sim uArch: Shader 52 bind to kernel 1 '_Z27performStreamCollide_kernelPfS_'
GPGPU-Sim uArch: Shader 53 bind to kernel 1 '_Z27performStreamCollide_kernelPfS_'
GPGPU-Sim uArch: Shader 54 bind to kernel 1 '_Z27performStreamCollide_kernelPfS_'
GPGPU-Sim uArch: Shader 55 bind to kernel 1 '_Z27performStreamCollide_kernelPfS_'
GPGPU-Sim uArch: Shader 56 bind to kernel 1 '_Z27performStreamCollide_kernelPfS_'
GPGPU-Sim uArch: Shader 57 bind to kernel 1 '_Z27performStreamCollide_kernelPfS_'
GPGPU-Sim uArch: Shader 58 bind to kernel 1 '_Z27performStreamCollide_kernelPfS_'
GPGPU-Sim uArch: Shader 59 bind to kernel 1 '_Z27performStreamCollide_kernelPfS_'
GPGPU-Sim uArch: Shader 60 bind to kernel 1 '_Z27performStreamCollide_kernelPfS_'
GPGPU-Sim uArch: Shader 61 bind to kernel 1 '_Z27performStreamCollide_kernelPfS_'
GPGPU-Sim uArch: Shader 62 bind to kernel 1 '_Z27performStreamCollide_kernelPfS_'
GPGPU-Sim uArch: Shader 63 bind to kernel 1 '_Z27performStreamCollide_kernelPfS_'
GPGPU-Sim uArch: Shader 64 bind to kernel 1 '_Z27performStreamCollide_kernelPfS_'
GPGPU-Sim uArch: Shader 65 bind to kernel 1 '_Z27performStreamCollide_kernelPfS_'
GPGPU-Sim uArch: Shader 66 bind to kernel 1 '_Z27performStreamCollide_kernelPfS_'
GPGPU-Sim uArch: Shader 67 bind to kernel 1 '_Z27performStreamCollide_kernelPfS_'
GPGPU-Sim uArch: Shader 68 bind to kernel 1 '_Z27performStreamCollide_kernelPfS_'
GPGPU-Sim uArch: Shader 69 bind to kernel 1 '_Z27performStreamCollide_kernelPfS_'
GPGPU-Sim uArch: Shader 70 bind to kernel 1 '_Z27performStreamCollide_kernelPfS_'
GPGPU-Sim uArch: Shader 71 bind to kernel 1 '_Z27performStreamCollide_kernelPfS_'
GPGPU-Sim uArch: Shader 72 bind to kernel 1 '_Z27performStreamCollide_kernelPfS_'
GPGPU-Sim uArch: Shader 73 bind to kernel 1 '_Z27performStreamCollide_kernelPfS_'
GPGPU-Sim uArch: Shader 74 bind to kernel 1 '_Z27performStreamCollide_kernelPfS_'
GPGPU-Sim uArch: Shader 75 bind to kernel 1 '_Z27performStreamCollide_kernelPfS_'
GPGPU-Sim uArch: Shader 76 bind to kernel 1 '_Z27performStreamCollide_kernelPfS_'
GPGPU-Sim uArch: Shader 77 bind to kernel 1 '_Z27performStreamCollide_kernelPfS_'
GPGPU-Sim uArch: Shader 78 bind to kernel 1 '_Z27performStreamCollide_kernelPfS_'
GPGPU-Sim uArch: Shader 79 bind to kernel 1 '_Z27performStreamCollide_kernelPfS_'
kernel_name = _Z27performStreamCollide_kernelPfS_ 
kernel_launch_uid = 1 
gpu_sim_cycle = 51455
gpu_sim_insn = 36423332
gpu_ipc =     707.8677
gpu_tot_sim_cycle = 51455
gpu_tot_sim_insn = 36423332
gpu_tot_ipc =     707.8677
gpu_tot_issued_cta = 1960
gpu_occupancy = 71.8072% 
gpu_tot_occupancy = 71.8072% 
max_total_param_size = 0
gpu_stall_dramfull = 1634376
gpu_stall_icnt2sh    = 535
partiton_level_parallism =      17.1279
partiton_level_parallism_total  =      17.1279
partiton_level_parallism_util =      21.1540
partiton_level_parallism_util_total  =      21.1540
L2_BW  =     610.5379 GB/Sec
L2_BW_total  =     610.5379 GB/Sec
gpu_total_sim_rate=65274
############## bottleneck_stats #############
cycles: core 51455, icnt 51455, l2 51455, dram 38636
gpu_ipc	707.868
gpu_tot_issued_cta = 1960, average cycles = 26
n_dram_writes	 0, n_dram_reads	 0
n_GLOBAL_ACC_R	 514398 
n_LOCAL_ACC_R	 0 
n_CONST_ACC_R	 0 
n_TEXTURE_ACC_R	 0 
n_GLOBAL_ACC_W	 0 
n_LOCAL_ACC_W	 0 
n_L1_WRBK_ACC	 0 
n_L2_WRBK_ACC	 57552 
n_L1_WR_ALLOC_R	 0 
n_L2_WR_ALLOC_R	 0 

n_sm	 80, n_schedulers	 4
scheduler util	0.077	80
L1D data util	0.911	80	1.024	70
L1D tag util	0.897	80	0.899	59
L2 data util	0.664	64	0.709	48
L2 tag util	0.265	64	0.280	9
n_l2_access	 873904
icnt s2m util	0.000	0	0.000	9	flits per packet: -nan
icnt m2s util	0.000	0	0.000	9	flits per packet: -nan
sum=0
n_mem	 32
dram util	0.593	32	0.626	28

latency_dram:	-959258266, num_dram_reqs:	867187
DRAM latency:	3846

n_reg	65536, n_smem	98304, n_thread	2048, n_tb	32
reg file	0.938
smem size	0.000
thread slot	0.750
TB slot    	0.375
L1I tag util	0.158	80	0.188	70

n_mem_pipe	1, n_sp_pipe	4, n_sfu_pipe	4
mem pipe util	0.062	80	0.069	70
sp pipe util	0.075	80	0.092	70
sfu pipe util	0.004	80	0.005	70
ldst mem cycle	0.000	0	0.000	70

smem port	0.000	0

n_reg_bank	16
reg port	0.049	16	0.059	11
L1D tag util	0.897	80	0.899	59
L1D fill util	0.125	80	0.145	6
n_l1d_mshr	4096
L1D mshr util	0.128	80
n_l1d_missq	16
L1D missq util	0.843	80
L1D hit rate	0.000
L1D miss rate	0.254
L1D rsfail rate	0.746
L2 tag util	0.265	64	0.280	9
L2 fill util	0.156	64	0.166	48
n_l2_mshr	192
n_l2_missq	32
L2 mshr util	0.560	64	0.630	32
L2 missq util	0.007	64	0.008	57
L2 hit rate	0.000
L2 miss rate	1.000
L2 rsfail rate	0.000

dram activity	0.878	32	0.893	2

load trans eff	1.000
load trans sz	32.000
load_useful_bytes 17802624, load_transaction_bytes 17802624, icnt_m2s_bytes 0
n_gmem_load_insns 148091, n_gmem_load_accesses 556332
n_smem_access_insn 0, n_smem_accesses 0

tmp_counter/12	0.282

run 0.015, fetch 0.192, sync 0.192, control 0.000, data 0.505, struct 0.096
############ end_bottleneck_stats #############

========= Core cache stats =========
L1I_cache:
	L1I_total_cache_accesses = 0
	L1I_total_cache_misses = 0
	L1I_total_cache_pending_hits = 0
	L1I_total_cache_reservation_fails = 0
L1D_cache:
	L1D_cache_core[0]: Access = 12180, Miss = 12180, Miss_rate = 1.000, Pending_hits = 0, Reservation_fails = 33971
	L1D_cache_core[1]: Access = 11335, Miss = 11335, Miss_rate = 1.000, Pending_hits = 0, Reservation_fails = 34864
	L1D_cache_core[2]: Access = 11392, Miss = 11392, Miss_rate = 1.000, Pending_hits = 0, Reservation_fails = 34734
	L1D_cache_core[3]: Access = 13055, Miss = 13055, Miss_rate = 1.000, Pending_hits = 0, Reservation_fails = 33050
	L1D_cache_core[4]: Access = 10810, Miss = 10810, Miss_rate = 1.000, Pending_hits = 0, Reservation_fails = 35412
	L1D_cache_core[5]: Access = 11724, Miss = 11724, Miss_rate = 1.000, Pending_hits = 0, Reservation_fails = 34518
	L1D_cache_core[6]: Access = 13037, Miss = 13037, Miss_rate = 1.000, Pending_hits = 0, Reservation_fails = 33137
	L1D_cache_core[7]: Access = 12776, Miss = 12776, Miss_rate = 1.000, Pending_hits = 0, Reservation_fails = 33261
	L1D_cache_core[8]: Access = 11655, Miss = 11655, Miss_rate = 1.000, Pending_hits = 0, Reservation_fails = 34527
	L1D_cache_core[9]: Access = 10974, Miss = 10974, Miss_rate = 1.000, Pending_hits = 0, Reservation_fails = 35134
	L1D_cache_core[10]: Access = 12329, Miss = 12329, Miss_rate = 1.000, Pending_hits = 0, Reservation_fails = 33910
	L1D_cache_core[11]: Access = 11996, Miss = 11996, Miss_rate = 1.000, Pending_hits = 0, Reservation_fails = 34137
	L1D_cache_core[12]: Access = 12772, Miss = 12772, Miss_rate = 1.000, Pending_hits = 0, Reservation_fails = 33394
	L1D_cache_core[13]: Access = 11486, Miss = 11486, Miss_rate = 1.000, Pending_hits = 0, Reservation_fails = 34699
	L1D_cache_core[14]: Access = 10991, Miss = 10991, Miss_rate = 1.000, Pending_hits = 0, Reservation_fails = 35220
	L1D_cache_core[15]: Access = 12350, Miss = 12350, Miss_rate = 1.000, Pending_hits = 0, Reservation_fails = 33826
	L1D_cache_core[16]: Access = 12488, Miss = 12488, Miss_rate = 1.000, Pending_hits = 0, Reservation_fails = 33456
	L1D_cache_core[17]: Access = 11514, Miss = 11514, Miss_rate = 1.000, Pending_hits = 0, Reservation_fails = 34470
	L1D_cache_core[18]: Access = 11895, Miss = 11895, Miss_rate = 1.000, Pending_hits = 0, Reservation_fails = 34005
	L1D_cache_core[19]: Access = 12421, Miss = 12421, Miss_rate = 1.000, Pending_hits = 0, Reservation_fails = 33763
	L1D_cache_core[20]: Access = 11806, Miss = 11806, Miss_rate = 1.000, Pending_hits = 0, Reservation_fails = 34388
	L1D_cache_core[21]: Access = 11207, Miss = 11207, Miss_rate = 1.000, Pending_hits = 0, Reservation_fails = 34971
	L1D_cache_core[22]: Access = 11465, Miss = 11465, Miss_rate = 1.000, Pending_hits = 0, Reservation_fails = 34667
	L1D_cache_core[23]: Access = 11021, Miss = 11021, Miss_rate = 1.000, Pending_hits = 0, Reservation_fails = 35218
	L1D_cache_core[24]: Access = 12573, Miss = 12573, Miss_rate = 1.000, Pending_hits = 0, Reservation_fails = 33564
	L1D_cache_core[25]: Access = 11267, Miss = 11267, Miss_rate = 1.000, Pending_hits = 0, Reservation_fails = 34952
	L1D_cache_core[26]: Access = 12658, Miss = 12658, Miss_rate = 1.000, Pending_hits = 0, Reservation_fails = 33357
	L1D_cache_core[27]: Access = 12159, Miss = 12159, Miss_rate = 1.000, Pending_hits = 0, Reservation_fails = 33936
	L1D_cache_core[28]: Access = 10786, Miss = 10786, Miss_rate = 1.000, Pending_hits = 0, Reservation_fails = 35343
	L1D_cache_core[29]: Access = 12109, Miss = 12109, Miss_rate = 1.000, Pending_hits = 0, Reservation_fails = 33903
	L1D_cache_core[30]: Access = 11411, Miss = 11411, Miss_rate = 1.000, Pending_hits = 0, Reservation_fails = 34769
	L1D_cache_core[31]: Access = 11379, Miss = 11379, Miss_rate = 1.000, Pending_hits = 0, Reservation_fails = 34621
	L1D_cache_core[32]: Access = 10951, Miss = 10951, Miss_rate = 1.000, Pending_hits = 0, Reservation_fails = 35271
	L1D_cache_core[33]: Access = 12154, Miss = 12154, Miss_rate = 1.000, Pending_hits = 0, Reservation_fails = 33957
	L1D_cache_core[34]: Access = 12458, Miss = 12458, Miss_rate = 1.000, Pending_hits = 0, Reservation_fails = 33486
	L1D_cache_core[35]: Access = 12620, Miss = 12620, Miss_rate = 1.000, Pending_hits = 0, Reservation_fails = 33426
	L1D_cache_core[36]: Access = 11462, Miss = 11462, Miss_rate = 1.000, Pending_hits = 0, Reservation_fails = 34688
	L1D_cache_core[37]: Access = 12378, Miss = 12378, Miss_rate = 1.000, Pending_hits = 0, Reservation_fails = 33762
	L1D_cache_core[38]: Access = 12640, Miss = 12640, Miss_rate = 1.000, Pending_hits = 0, Reservation_fails = 33384
	L1D_cache_core[39]: Access = 11313, Miss = 11313, Miss_rate = 1.000, Pending_hits = 0, Reservation_fails = 34932
	L1D_cache_core[40]: Access = 11254, Miss = 11254, Miss_rate = 1.000, Pending_hits = 0, Reservation_fails = 34992
	L1D_cache_core[41]: Access = 11134, Miss = 11134, Miss_rate = 1.000, Pending_hits = 0, Reservation_fails = 35082
	L1D_cache_core[42]: Access = 12351, Miss = 12351, Miss_rate = 1.000, Pending_hits = 0, Reservation_fails = 33645
	L1D_cache_core[43]: Access = 12173, Miss = 12173, Miss_rate = 1.000, Pending_hits = 0, Reservation_fails = 33875
	L1D_cache_core[44]: Access = 10634, Miss = 10634, Miss_rate = 1.000, Pending_hits = 0, Reservation_fails = 35453
	L1D_cache_core[45]: Access = 11052, Miss = 11052, Miss_rate = 1.000, Pending_hits = 0, Reservation_fails = 35129
	L1D_cache_core[46]: Access = 11767, Miss = 11767, Miss_rate = 1.000, Pending_hits = 0, Reservation_fails = 34391
	L1D_cache_core[47]: Access = 11459, Miss = 11459, Miss_rate = 1.000, Pending_hits = 0, Reservation_fails = 34758
	L1D_cache_core[48]: Access = 11819, Miss = 11819, Miss_rate = 1.000, Pending_hits = 0, Reservation_fails = 34408
	L1D_cache_core[49]: Access = 10664, Miss = 10664, Miss_rate = 1.000, Pending_hits = 0, Reservation_fails = 35500
	L1D_cache_core[50]: Access = 11666, Miss = 11666, Miss_rate = 1.000, Pending_hits = 0, Reservation_fails = 34477
	L1D_cache_core[51]: Access = 11866, Miss = 11866, Miss_rate = 1.000, Pending_hits = 0, Reservation_fails = 34252
	L1D_cache_core[52]: Access = 11916, Miss = 11916, Miss_rate = 1.000, Pending_hits = 0, Reservation_fails = 34200
	L1D_cache_core[53]: Access = 11084, Miss = 11084, Miss_rate = 1.000, Pending_hits = 0, Reservation_fails = 34719
	L1D_cache_core[54]: Access = 12400, Miss = 12400, Miss_rate = 1.000, Pending_hits = 0, Reservation_fails = 33741
	L1D_cache_core[55]: Access = 11335, Miss = 11335, Miss_rate = 1.000, Pending_hits = 0, Reservation_fails = 34862
	L1D_cache_core[56]: Access = 10326, Miss = 10326, Miss_rate = 1.000, Pending_hits = 0, Reservation_fails = 35886
	L1D_cache_core[57]: Access = 11444, Miss = 11444, Miss_rate = 1.000, Pending_hits = 0, Reservation_fails = 34804
	L1D_cache_core[58]: Access = 11445, Miss = 11445, Miss_rate = 1.000, Pending_hits = 0, Reservation_fails = 34747
	L1D_cache_core[59]: Access = 11753, Miss = 11753, Miss_rate = 1.000, Pending_hits = 0, Reservation_fails = 34515
	L1D_cache_core[60]: Access = 11140, Miss = 11140, Miss_rate = 1.000, Pending_hits = 0, Reservation_fails = 34871
	L1D_cache_core[61]: Access = 12067, Miss = 12067, Miss_rate = 1.000, Pending_hits = 0, Reservation_fails = 33985
	L1D_cache_core[62]: Access = 11624, Miss = 11624, Miss_rate = 1.000, Pending_hits = 0, Reservation_fails = 34606
	L1D_cache_core[63]: Access = 11195, Miss = 11195, Miss_rate = 1.000, Pending_hits = 0, Reservation_fails = 34966
	L1D_cache_core[64]: Access = 11349, Miss = 11349, Miss_rate = 1.000, Pending_hits = 0, Reservation_fails = 34853
	L1D_cache_core[65]: Access = 12337, Miss = 12337, Miss_rate = 1.000, Pending_hits = 0, Reservation_fails = 33660
	L1D_cache_core[66]: Access = 12102, Miss = 12102, Miss_rate = 1.000, Pending_hits = 0, Reservation_fails = 33869
	L1D_cache_core[67]: Access = 11121, Miss = 11121, Miss_rate = 1.000, Pending_hits = 0, Reservation_fails = 35046
	L1D_cache_core[68]: Access = 10903, Miss = 10903, Miss_rate = 1.000, Pending_hits = 0, Reservation_fails = 35198
	L1D_cache_core[69]: Access = 11834, Miss = 11834, Miss_rate = 1.000, Pending_hits = 0, Reservation_fails = 34318
	L1D_cache_core[70]: Access = 13170, Miss = 13170, Miss_rate = 1.000, Pending_hits = 0, Reservation_fails = 32961
	L1D_cache_core[71]: Access = 11206, Miss = 11206, Miss_rate = 1.000, Pending_hits = 0, Reservation_fails = 35040
	L1D_cache_core[72]: Access = 12542, Miss = 12542, Miss_rate = 1.000, Pending_hits = 0, Reservation_fails = 33614
	L1D_cache_core[73]: Access = 11636, Miss = 11636, Miss_rate = 1.000, Pending_hits = 0, Reservation_fails = 34632
	L1D_cache_core[74]: Access = 11046, Miss = 11046, Miss_rate = 1.000, Pending_hits = 0, Reservation_fails = 35146
	L1D_cache_core[75]: Access = 11978, Miss = 11978, Miss_rate = 1.000, Pending_hits = 0, Reservation_fails = 34250
	L1D_cache_core[76]: Access = 11014, Miss = 11014, Miss_rate = 1.000, Pending_hits = 0, Reservation_fails = 35065
	L1D_cache_core[77]: Access = 11859, Miss = 11859, Miss_rate = 1.000, Pending_hits = 0, Reservation_fails = 34298
	L1D_cache_core[78]: Access = 12105, Miss = 12105, Miss_rate = 1.000, Pending_hits = 0, Reservation_fails = 34100
	L1D_cache_core[79]: Access = 10796, Miss = 10796, Miss_rate = 1.000, Pending_hits = 0, Reservation_fails = 35462
	L1D_total_cache_accesses = 937563
	L1D_total_cache_misses = 937563
	L1D_total_cache_miss_rate = 1.0000
	L1D_total_cache_pending_hits = 0
	L1D_total_cache_reservation_fails = 2753459
	L1D_cache_data_port_util = 0.000
	L1D_cache_fill_port_util = 0.138
L1C_cache:
	L1C_total_cache_accesses = 0
	L1C_total_cache_misses = 0
	L1C_total_cache_pending_hits = 0
	L1C_total_cache_reservation_fails = 0
L1T_cache:
	L1T_total_cache_accesses = 0
	L1T_total_cache_misses = 0
	L1T_total_cache_pending_hits = 0
	L1T_total_cache_reservation_fails = 0

Total_core_cache_stats:
	Total_core_cache_stats_breakdown[GLOBAL_ACC_R][HIT] = 0
	Total_core_cache_stats_breakdown[GLOBAL_ACC_R][HIT_RESERVED] = 0
	Total_core_cache_stats_breakdown[GLOBAL_ACC_R][MISS] = 553532
	Total_core_cache_stats_breakdown[GLOBAL_ACC_R][RESERVATION_FAIL] = 1517508
	Total_core_cache_stats_breakdown[GLOBAL_ACC_R][SECTOR_MISS] = 0
	Total_core_cache_stats_breakdown[LOCAL_ACC_R][HIT] = 0
	Total_core_cache_stats_breakdown[LOCAL_ACC_R][HIT_RESERVED] = 0
	Total_core_cache_stats_breakdown[LOCAL_ACC_R][MISS] = 0
	Total_core_cache_stats_breakdown[LOCAL_ACC_R][RESERVATION_FAIL] = 0
	Total_core_cache_stats_breakdown[LOCAL_ACC_R][SECTOR_MISS] = 0
	Total_core_cache_stats_breakdown[CONST_ACC_R][HIT] = 0
	Total_core_cache_stats_breakdown[CONST_ACC_R][HIT_RESERVED] = 0
	Total_core_cache_stats_breakdown[CONST_ACC_R][MISS] = 0
	Total_core_cache_stats_breakdown[CONST_ACC_R][RESERVATION_FAIL] = 0
	Total_core_cache_stats_breakdown[CONST_ACC_R][SECTOR_MISS] = 0
	Total_core_cache_stats_breakdown[TEXTURE_ACC_R][HIT] = 0
	Total_core_cache_stats_breakdown[TEXTURE_ACC_R][HIT_RESERVED] = 0
	Total_core_cache_stats_breakdown[TEXTURE_ACC_R][MISS] = 0
	Total_core_cache_stats_breakdown[TEXTURE_ACC_R][RESERVATION_FAIL] = 0
	Total_core_cache_stats_breakdown[TEXTURE_ACC_R][SECTOR_MISS] = 0
	Total_core_cache_stats_breakdown[GLOBAL_ACC_W][HIT] = 0
	Total_core_cache_stats_breakdown[GLOBAL_ACC_W][HIT_RESERVED] = 0
	Total_core_cache_stats_breakdown[GLOBAL_ACC_W][MISS] = 384031
	Total_core_cache_stats_breakdown[GLOBAL_ACC_W][RESERVATION_FAIL] = 1235951
	Total_core_cache_stats_breakdown[GLOBAL_ACC_W][SECTOR_MISS] = 0
	Total_core_cache_stats_breakdown[LOCAL_ACC_W][HIT] = 0
	Total_core_cache_stats_breakdown[LOCAL_ACC_W][HIT_RESERVED] = 0
	Total_core_cache_stats_breakdown[LOCAL_ACC_W][MISS] = 0
	Total_core_cache_stats_breakdown[LOCAL_ACC_W][RESERVATION_FAIL] = 0
	Total_core_cache_stats_breakdown[LOCAL_ACC_W][SECTOR_MISS] = 0
	Total_core_cache_stats_breakdown[L1_WRBK_ACC][HIT] = 0
	Total_core_cache_stats_breakdown[L1_WRBK_ACC][HIT_RESERVED] = 0
	Total_core_cache_stats_breakdown[L1_WRBK_ACC][MISS] = 0
	Total_core_cache_stats_breakdown[L1_WRBK_ACC][RESERVATION_FAIL] = 0
	Total_core_cache_stats_breakdown[L1_WRBK_ACC][SECTOR_MISS] = 0
	Total_core_cache_stats_breakdown[L2_WRBK_ACC][HIT] = 0
	Total_core_cache_stats_breakdown[L2_WRBK_ACC][HIT_RESERVED] = 0
	Total_core_cache_stats_breakdown[L2_WRBK_ACC][MISS] = 0
	Total_core_cache_stats_breakdown[L2_WRBK_ACC][RESERVATION_FAIL] = 0
	Total_core_cache_stats_breakdown[L2_WRBK_ACC][SECTOR_MISS] = 0
	Total_core_cache_stats_breakdown[INST_ACC_R][HIT] = 0
	Total_core_cache_stats_breakdown[INST_ACC_R][HIT_RESERVED] = 0
	Total_core_cache_stats_breakdown[INST_ACC_R][MISS] = 0
	Total_core_cache_stats_breakdown[INST_ACC_R][RESERVATION_FAIL] = 0
	Total_core_cache_stats_breakdown[INST_ACC_R][SECTOR_MISS] = 0
	Total_core_cache_stats_breakdown[L1_WR_ALLOC_R][HIT] = 0
	Total_core_cache_stats_breakdown[L1_WR_ALLOC_R][HIT_RESERVED] = 0
	Total_core_cache_stats_breakdown[L1_WR_ALLOC_R][MISS] = 0
	Total_core_cache_stats_breakdown[L1_WR_ALLOC_R][RESERVATION_FAIL] = 0
	Total_core_cache_stats_breakdown[L1_WR_ALLOC_R][SECTOR_MISS] = 0
	Total_core_cache_stats_breakdown[L2_WR_ALLOC_R][HIT] = 0
	Total_core_cache_stats_breakdown[L2_WR_ALLOC_R][HIT_RESERVED] = 0
	Total_core_cache_stats_breakdown[L2_WR_ALLOC_R][MISS] = 0
	Total_core_cache_stats_breakdown[L2_WR_ALLOC_R][RESERVATION_FAIL] = 0
	Total_core_cache_stats_breakdown[L2_WR_ALLOC_R][SECTOR_MISS] = 0
	Total_core_cache_stats_breakdown[GLOBAL_ACC_R][TOTAL_ACCESS] = 553532
	Total_core_cache_stats_breakdown[GLOBAL_ACC_W][TOTAL_ACCESS] = 384031

Total_core_cache_fail_stats:
	Total_core_cache_fail_stats_breakdown[GLOBAL_ACC_R][MISS_QUEUE_FULL] = 1517508
	Total_core_cache_fail_stats_breakdown[GLOBAL_ACC_W][MISS_QUEUE_FULL] = 1235951
Shader 0 warp_id issue ditsribution:
warp_id:
0, 1, 2, 3, 4, 5, 6, 7, 8, 9, 10, 11, 12, 13, 14, 15, 16, 17, 18, 19, 20, 21, 22, 23, 24, 25, 26, 27, 28, 29, 30, 31, 32, 33, 34, 35, 36, 37, 38, 39, 40, 41, 42, 43, 44, 45, 46, 47, 
distro:
310, 300, 295, 310, 300, 290, 290, 300, 383, 406, 431, 408, 300, 290, 290, 300, 383, 388, 388, 383, 338, 363, 354, 383, 277, 290, 289, 240, 267, 319, 335, 335, 265, 255, 255, 265, 187, 211, 211, 209, 265, 255, 255, 265, 265, 255, 255, 265, 
gpgpu_n_tot_thrd_icount = 40332320
gpgpu_n_tot_w_icount = 1260385
gpgpu_n_stall_shd_mem = 3443335
gpgpu_n_mem_read_local = 0
gpgpu_n_mem_write_local = 0
gpgpu_n_mem_read_global = 552933
gpgpu_n_mem_write_global = 383399
gpgpu_n_mem_texture = 0
gpgpu_n_mem_const = 0
gpgpu_n_load_insn  = 4435144
gpgpu_n_store_insn = 2701920
gpgpu_n_shmem_insn = 0
gpgpu_n_sstarr_insn = 0
gpgpu_n_tex_insn = 0
gpgpu_n_const_mem_insn = 0
gpgpu_n_param_mem_insn = 466960
gpgpu_n_shmem_bkconflict = 0
gpgpu_n_cache_bkconflict = 0
gpgpu_n_intrawarp_mshr_merge = 0
gpgpu_n_cmem_portconflict = 0
gpgpu_stall_shd_mem[c_mem][resource_stall] = 0
gpgpu_stall_shd_mem[s_mem][bk_conf] = 0
gpgpu_stall_shd_mem[gl_mem][resource_stall] = 3443335
gpgpu_stall_shd_mem[gl_mem][coal_stall] = 0
gpgpu_stall_shd_mem[gl_mem][data_port_stall] = 0
gpu_reg_bank_conflict_stalls = 0
Warp Occupancy Distribution:
Stall:13558100	W0_Idle:400	W0_Scoreboard:33694	W1:29450	W2:0	W3:0	W4:0	W5:0	W6:0	W7:0	W8:0	W9:0	W10:0	W11:0	W12:0	W13:0	W14:0	W15:0	W16:0	W17:0	W18:0	W19:0	W20:0	W21:0	W22:0	W23:213375	W24:88202	W25:0	W26:0	W27:0	W28:0	W29:0	W30:0	W31:211050	W32:731009
single_issue_nums: WS0:314672	WS1:318821	WS2:323162	WS3:316431	
dual_issue_nums: WS0:0	WS1:0	WS2:0	WS3:0	
traffic_breakdown_coretomem[GLOBAL_ACC_R] = 4423464 {8:552933,}
traffic_breakdown_coretomem[GLOBAL_ACC_W] = 15335960 {40:383399,}
traffic_breakdown_memtocore[GLOBAL_ACC_R] = 20504600 {40:512615,}
traffic_breakdown_memtocore[GLOBAL_ACC_W] = 2836744 {8:354593,}
maxmflatency = 13137 
max_icnt2mem_latency = 11700 
maxmrqlatency = 1574 
max_icnt2sh_latency = 843 
averagemflatency = 3841 
avg_icnt2mem_latency = 3086 
avg_mrq_latency = 151 
avg_icnt2sh_latency = 26 
mrq_lat_table:16071 	14958 	11262 	16394 	37236 	85652 	135144 	163219 	65983 	23060 	1036 	0 	0 	0 	0 	0 	0 	0 	0 	0 	0 	0 	0 	0 	0 	0 	0 	0 	0 	0 	0 	0 	
dq_lat_table:0 	0 	0 	0 	0 	0 	0 	0 	0 	0 	0 	0 	0 	0 	0 	0 	0 	0 	0 	0 	0 	0 	0 	0 	0 	0 	0 	0 	0 	0 	0 	0 	
mf_lat_table:0 	0 	0 	0 	0 	0 	0 	0 	2320 	12721 	142987 	349896 	341449 	17815 	0 	0 	0 	0 	0 	0 	0 	0 	0 	0 	0 	0 	0 	0 	0 	0 	0 	0 	
icnt2mem_lat_table:0 	0 	0 	0 	464 	2400 	8128 	12560 	0 	34246 	212699 	405111 	201508 	4201 	0 	0 	0 	0 	0 	0 	0 	0 	0 	0 	
icnt2sh_lat_table:0 	603612 	76144 	47148 	37082 	30438 	26515 	19661 	18085 	8503 	0 	0 	0 	0 	0 	0 	0 	0 	0 	0 	0 	0 	0 	0 	
mf_lat_pw_table:0 	0 	0 	0 	0 	0 	0 	0 	0 	2 	7 	39 	43 	0 	0 	0 	0 	0 	0 	0 	0 	0 	0 	0 	0 	0 	0 	0 	0 	0 	0 	0 	
maximum concurrent accesses to same row:
dram[0]:        16        20        12        12        24        24        24        24        24        24        24        24        12        12        12        12 
dram[1]:        11        15        21        21        21        21        21        21        21        21        18        17        11        11        11        11 
dram[2]:        12        12        12        12        24        24        24        24        24        24        24        24        16        12        12        16 
dram[3]:        11        14        21        21        21        21        21        21        21        21        18        17        13        13        13        14 
dram[4]:        16        12        12        12        24        24        24        24        24        24        24        24        16        12        16        16 
dram[5]:        14        14        21        21        21        21        21        21        21        21        18        17        14        15        11        11 
dram[6]:        16        16        12        12        24        24        24        24        24        24        24        24        16        16        20        16 
dram[7]:        21        15        21        21        21        21        21        21        21        21        18        19        13        11        11        15 
dram[8]:        12        12        12        12        24        24        24        24        24        24        24        24        12        16        12        16 
dram[9]:        11        15        21        21        21        21        21        21        21        21        18        17        15        12        15        14 
dram[10]:        12        12        12        12        24        24        24        24        24        24        24        24        16        12        12        12 
dram[11]:        11        10        21        21        21        21        21        21        21        21        18        17        11        15        11        14 
dram[12]:         8        12        12        12        24        24        24        24        24        24        24        24        16        16        20        16 
dram[13]:        13        13        21        21        21        21        21        21        21        21        18        17        12        13        13        11 
dram[14]:        16        24        12        12        24        24        24        24        24        24        24        24        16        16        16        12 
dram[15]:        18        21        21        21        21        21        21        21        21        21        18        17        12        14        11        11 
dram[16]:        16        16        16        12        24        24        24        24        24        24        24        24        14        16        13        16 
dram[17]:        14        11        21        21        21        21        21        21        21        21        18        17        11        12        11        14 
dram[18]:        13        16        12        12        24        24        24        24        24        24        24        24        16        12        12        12 
dram[19]:        11        14        21        21        21        21        21        21        21        21        18        17        14        12        11        14 
dram[20]:        12        12        12        16        24        24        24        24        24        24        24        24        16        16        20        16 
dram[21]:        14        18        21        21        21        21        21        21        21        21        18        17        14        18        16        15 
dram[22]:        12        12        12        12        24        24        24        24        24        24        24        24        12        12        12        12 
dram[23]:        11        18        21        21        21        21        21        21        21        21        18        17        14        11        11        12 
dram[24]:         8        12        12        12        24        24        24        24        24        24        24        24        12        12        16        12 
dram[25]:        11        13        21        21        21        21        21        21        21        21        18        17        14        11        12        11 
dram[26]:        20        12        12        12        24        24        24        24        24        24        24        24        16        12        12        12 
dram[27]:        10        13        21        21        21        21        21        21        21        21        18        17        14        13        11        11 
dram[28]:        16        20        12        12        24        24        24        24        24        24        24        24        16        16        12        12 
dram[29]:        11        14        21        21        21        21        21        21        21        21        18        17        11        14        11        12 
dram[30]:        12        16        12        16        24        24        24        24        24        24        24        24        16        16        16        12 
dram[31]:        14        13        21        21        21        21        21        21        21        21        18        17        14        12        12        12 
maximum service time to same row:
dram[0]:     18340     12707     20100     20076      7192      6741      5923      5971      6265      6296      6633      6635     12880     13363     16228     16176 
dram[1]:     18766     13297     21179     20533      8075      8017      6079      6103      6385      6432      7947      7932     11217     12182     15927     15916 
dram[2]:     18489     12874     19696     19164      7540      7852      5923      5971      6265      6296      6633      6635     12880     13363     16622     16601 
dram[3]:     17959     12494     20533     19060      7834      8560      8464      7374      6385      6432      7947      7932     11217     12182     15907     15896 
dram[4]:     18924     13335     20164     19632      6786      8379      9015      6547      6265      6296      6633      6635     12880     13363     16341     16369 
dram[5]:     18930     13439     21059     19411      7904      8449      9236      6418      6385      6432      7947      7932     11217     12182     15785     15770 
dram[6]:     17776     12165     20621     19123      7073      7420      8204      6757      6265      6296      6633      6635     12880     13363     16413     16375 
dram[7]:     18873     13428     20962     19076      7803      8947      7281      6329      6385      6432      7947      7932     11217     12182     16043     16018 
dram[8]:     19161     13593     19812     19491      7257      7638      6849      5971      6265      6296      6633      6635     12880     13363     16891     16855 
dram[9]:     20664     16231     20987     19656      7896      8706      6950      8103      6385      6432      7947      7932     11217     12182     16486     16512 
dram[10]:     18300     14969     19933     20018      8701      7772      5923      8157      6265      6296      6633      6635     12880     13363     16444     16404 
dram[11]:     18797     14491     20456     19594      8402      9377      6079      6103      6385      6432      7947      7932     11217     12182     15935     15943 
dram[12]:     18284     12746     19205     19180      7278      8762      9806      5971      6265      6296      6633      6635     12880     13363     16473     16456 
dram[13]:     19639     15403     20681     19644      9320      8210      8683      6103      6385      6432      7947      7932     11217     12182     15875     15864 
dram[14]:     19266     13549     19394     19991      5691      6109      5923      5971      6265      6296      6633      6635     12880     13363     16863     16690 
dram[15]:     19286     13790     20397     20127      7432      7416      6079      6103      6385      6432      7947      7932     11217     12182     16466     16440 
dram[16]:     18445     13000     19514     21047      7437      8356      5930      5971      6265      6296      6633      6635     12880     13363     16191     16287 
dram[17]:     20716     15231     20420     20911      6780      9485      6079      6103      6385      6432      7947      7932     11217     12182     15819     15810 
dram[18]:     19102     13486     19118     19881      8041      7306      5923      5971      6265      6296      6633      6635     12880     13363     16710     16665 
dram[19]:     19792     14319     20405     21109      7785      8384      6079      6103      6385      6432      7947      7932     11217     12182     16023     15982 
dram[20]:     18260     13425     20190     19870      7697      8406      6945      8767      6265      6296      6633      6635     12880     13363     16348     16325 
dram[21]:     19366     13909     21408     19693      7848      9044      6986      6729      6385      6432      7947      7932     11217     12182     15689     15675 
dram[22]:     18348     12755     18832     19445      8809      6327      8139      9769      6265      6296      6633      6635     12880     13363     16288     16261 
dram[23]:     18045     12661     19878     19514      7568      8167      8289      9313      6385      6432      7947      7932     11217     12182     15432     15422 
dram[24]:     18878     13291     19845     19843      8699      6219      5923      7405      6265      6296      6633      6635     12880     13363     16533     16545 
dram[25]:     19960     14373     21333     20618      8064      8778      8226      8293      6385      6432      7947      7932     11217     12182     15514     15516 
dram[26]:     19716     14103     19486     19455      9272      6674      7330      7658      6265      6296      6633      6635     12880     13363     16754     16789 
dram[27]:     21064     13906     20392     19777      8679      8458      7300      7449      6385      6432      7947      7932     11217     12182     16213     16197 
dram[28]:     18800     13229     19430     19863      8128      6621      5923      7493      6265      6296      6633      6635     12880     13363     16573     16576 
dram[29]:     18287     12797     21841     20788      6705      7772      7226      6874      6385      6432      7947      7932     11217     12182     15754     15742 
dram[30]:     19720     14954     19746     19344      7690      8264      5923      6610      6265      6296      6633      6635     12880     13363     16191     16205 
dram[31]:     18885     15018     20918     20136      8241      8833      6079      6103      6385      6432      7947      7932     11217     12182     15687     15691 
average row accesses per activate:
dram[0]:  4.168831  4.219731  4.987730  5.100000  5.847222  5.944445  4.497817  4.400000  3.983193  4.103448  3.815657  3.765586  3.887701  3.814815  4.009231  4.167742 
dram[1]:  3.665354  3.836910  4.650887  4.676647  5.587412  5.479730  4.330275  4.223684  3.768546  3.615819  3.183295  3.280576  3.263682  3.245658  3.529586  3.535714 
dram[2]:  4.126582  4.162996  4.818714  4.993827  6.021429  6.013986  4.723982  4.702222  3.969274  4.159883  3.836735  3.880829  3.959016  3.843085  4.094044  4.131833 
dram[3]:  3.796537  4.023256  5.040268  4.953020  5.716418  5.697842  4.362791  4.203540  3.848485  3.846385  3.430380  3.465296  3.452128  3.583333  3.697452  3.824503 
dram[4]:  4.130802  4.218340  4.917647  4.958084  6.099291  6.218978  4.895238  4.582609  4.157895  4.177843  3.935065  3.857143  4.008242  3.835544  4.158878  4.188498 
dram[5]:  3.646091  3.964758  4.703030  4.831250  5.728571  5.678571  4.502392  4.425926  3.931889  3.878788  3.455696  3.469388  3.527027  3.467914  3.594594  3.555556 
dram[6]:  4.426009  4.554502  5.231250  5.339869  5.964789  6.048276  4.788991  4.805430  4.173020  4.261905  3.787500  3.927083  4.033149  4.005525  4.277420  4.295082 
dram[7]:  3.881356  3.790393  4.775000  4.740260  5.765152  5.657143  4.663366  4.240000  3.836858  3.798220  3.506427  3.577428  3.539295  3.635098  3.764331  3.867110 
dram[8]:  4.291667  4.363636  5.172185  5.342466  6.136364  6.135338  4.899521  4.543103  4.188235  4.233728  3.937500  3.989362  4.239067  4.107955  4.537931  4.335570 
dram[9]:  3.770563  3.830357  4.779221  4.993243  6.126984  5.575540  4.561576  4.698020  3.863222  3.923313  3.491049  3.435443  3.631285  3.557692  3.807692  3.710191 
dram[10]:  4.316514  4.512077  5.083333  5.090322  6.227273  6.058824  4.491228  4.648889  4.025496  4.138728  3.877551  3.958005  3.951220  3.921833  4.087500  4.187702 
dram[11]:  3.625000  3.765217  4.536585  4.666667  5.664234  5.528572  4.549505  4.681592  3.813814  3.817910  3.366995  3.354680  3.477453  3.490617  3.511765  3.625387 
dram[12]:  4.237443  4.086580  4.815476  4.889571  5.829787  5.835714  4.576577  4.628319  4.133721  4.217647  3.840101  4.013333  3.964578  3.804749  4.207668  3.962963 
dram[13]:  3.732456  3.897778  5.026845  4.939597  6.023438  5.856061  4.400000  4.372727  3.785714  3.917431  3.176334  3.390000  3.355670  3.501362  3.639498  3.661342 
dram[14]:  4.162996  4.411215  4.993827  4.944445  5.795774  5.794326  4.589286  4.609649  4.002817  4.178362  3.856777  3.997340  3.765464  3.892183  4.030864  3.893617 
dram[15]:  3.789030  3.806867  4.612121  4.730062  5.594406  5.364865  4.304147  4.421296  3.816817  3.938462  3.381188  3.390547  3.306733  3.314721  3.452722  3.575758 
dram[16]:  4.198238  4.398104  4.939024  4.919753  5.873240  5.942029  4.694064  4.440678  3.947222  4.053824  4.092643  4.002653  3.732648  3.931880  4.278688  4.152103 
dram[17]:  3.643443  3.639676  4.662651  4.578313  5.794117  5.605634  4.487923  4.315315  3.607955  3.644886  3.402500  3.469388  3.389610  3.289340  3.410919  3.644860 
dram[18]:  4.327354  4.342593  4.921687  5.152866  6.057554  5.904109  4.622222  4.554112  4.134111  4.141211  4.018767  3.841026  3.860963  3.975138  4.088050  4.315254 
dram[19]:  3.840000  3.791111  5.006803  4.857143  5.870229  5.678832  4.364486  4.457944  3.768546  3.724638  3.421717  3.488432  3.542006  3.437666  3.437318  3.663492 
dram[20]:  4.195652  4.365741  5.083333  5.237179  6.124088  5.789115  4.882629  4.545455  4.157895  4.195907  3.837564  3.997348  3.932065  4.027933  4.135647  3.978593 
dram[21]:  3.829787  3.946188  4.877419  4.993464  5.602837  5.897059  4.695000  4.381395  3.836858  3.824405  3.395062  3.406015  3.472149  3.550964  3.663551  3.715655 
dram[22]:  4.298643  4.275701  4.810976  5.131579  5.955555  6.066176  4.755760  4.508621  4.074499  3.997222  3.912145  3.745049  3.696429  3.690537  3.957055  4.056962 
dram[23]:  3.731915  3.863014  4.720779  4.893333  5.688889  5.561151  4.497561  4.342593  3.708455  3.771261  3.363636  3.342233  3.427083  3.377261  3.588588  3.581818 
dram[24]:  4.463964  4.406393  5.035714  5.322581  5.992958  5.791946  4.840375  4.687500  4.235119  4.217009  3.825316  3.924870  3.874667  3.843915  4.192429  4.168790 
dram[25]:  3.893162  3.808696  4.880503  4.980392  5.414966  5.429530  4.545894  4.554502  3.691860  3.735465  3.313107  3.307506  3.435696  3.464191  3.722398  3.767742 
dram[26]:  4.419355  4.353211  5.000000  5.169935  6.286822  5.906475  4.608108  4.625551  3.991573  4.177326  3.820253  3.785000  3.874331  3.926829  4.205128  4.194805 
dram[27]:  3.763713  4.035714  4.855346  5.053691  5.705883  5.654676  4.529126  4.403670  3.819820  3.830357  3.313107  3.343137  3.422572  3.474667  3.681114  3.560000 
dram[28]:  4.542056  4.400922  5.091464  5.366013  6.380597  6.006993  4.642857  4.538462  4.065714  4.315315  3.973753  3.950521  4.038781  3.890374  4.199367  4.130159 
dram[29]:  3.658436  3.773109  4.500000  4.687117  5.278146  5.302631  4.238739  4.337838  3.953416  3.944785  3.339066  3.478372  3.468254  3.430446  3.439655  3.583081 
dram[30]:  4.166667  4.191781  4.793940  4.888199  6.014706  6.157895  4.728972  4.401674  4.011268  4.102564  3.922280  3.835443  3.875000  3.876676  3.954955  4.107143 
dram[31]:  3.888889  3.852679  4.650000  4.824676  5.368055  5.368055  4.314554  4.310502  3.652299  3.747093  3.408521  3.445844  3.372093  3.508108  3.566766  3.563636 
average row locality = 570015/139153 = 4.096318
number of total memory accesses made:
dram[0]:         0         0         0         0         0         0         0         0         0         0         0         0         0         0         0         0 
dram[1]:         0         0         0         0         0         0         0         0         0         0         0         0         0         0         0         0 
dram[2]:         0         0         0         0         0         0         0         0         0         0         0         0         0         0         0         0 
dram[3]:         0         0         0         0         0         0         0         0         0         0         0         0         0         0         0         0 
dram[4]:         0         0         0         0         0         0         0         0         0         0         0         0         0         0         0         0 
dram[5]:         0         0         0         0         0         0         0         0         0         0         0         0         0         0         0         0 
dram[6]:         0         0         0         0         0         0         0         0         0         0         0         0         0         0         0         0 
dram[7]:         0         0         0         0         0         0         0         0         0         0         0         0         0         0         0         0 
dram[8]:         0         0         0         0         0         0         0         0         0         0         0         0         0         0         0         0 
dram[9]:         0         0         0         0         0         0         0         0         0         0         0         0         0         0         0         0 
dram[10]:         0         0         0         0         0         0         0         0         0         0         0         0         0         0         0         0 
dram[11]:         0         0         0         0         0         0         0         0         0         0         0         0         0         0         0         0 
dram[12]:         0         0         0         0         0         0         0         0         0         0         0         0         0         0         0         0 
dram[13]:         0         0         0         0         0         0         0         0         0         0         0         0         0         0         0         0 
dram[14]:         0         0         0         0         0         0         0         0         0         0         0         0         0         0         0         0 
dram[15]:         0         0         0         0         0         0         0         0         0         0         0         0         0         0         0         0 
[...]
n_nop = 13057 
Read = 15179 
Write = 0 
L2_Alloc = 0 
L2_WB = 6898 
n_act = 4360 
n_pre = 4345 
n_ref = 0 
n_req = 17081 
total_req = 22077 

Dual Bus Interface Util: 
issued_total_row = 8705 
issued_total_col = 22077 
Row_Bus_Util =  0.225308 
CoL_Bus_Util = 0.571410 
Either_Row_CoL_Bus_Util = 0.662051 
Issued_on_Two_Bus_Simul_Util = 0.134667 
issued_two_Eff = 0.203409 
queue_avg = 48.984886 


dram_util_bins: 0 0 0 0 0 0 0 0 0 0
dram_eff_bins: 0 0 0 0 0 0 0 0 0 0
mrqq: max=64 avg=48.9849
Memory Partition 28: 
Cache L2_bank_056:

Cache L2_bank_057:

In Dram Latency Queue (total = 106): 
DRAM[28]: 16 bks, busW=16 BL=2 CL=12, tRRD=3 tCCD=1, tRCD=12 tRAS=28 tRP=12 tRC=40
n_cmd=38636 n_nop=11465 n_act=4296 n_pre=4280 n_ref_event=0 n_req=18895 n_rd=17036 n_rd_L2_A=0 n_write=0 n_wr_bk=7141 bw_util=0.6258
n_activity=34495 dram_eff=0.7009
bk0: 948a 24375i bk1: 928a 25599i bk2: 832a 29689i bk3: 820a 30061i bk4: 820a 31481i bk5: 816a 29983i bk6: 924a 25397i bk7: 940a 24925i bk8: 1216a 17279i bk9: 1224a 17256i bk10: 1280a 14202i bk11: 1280a 14279i bk12: 1280a 16100i bk13: 1280a 15336i bk14: 1232a 19109i bk15: 1216a 18955i 

------------------------------------------------------------------------

Row_Buffer_Locality = 0.771812
Row_Buffer_Locality_read = 0.820070
Row_Buffer_Locality_write = 0.312674
Bank_Level_Parallism = 8.203276
Bank_Level_Parallism_Col = 5.698463
Bank_Level_Parallism_Ready = 1.988377
write_to_read_ratio_blp_rw_average = 0.363889
GrpLevelPara = 3.292010 

BW Util details:
bwutil = 0.625764 
total_CMD = 38636 
util_bw = 24177 
Wasted_Col = 10088 
Wasted_Row = 230 
Idle = 4141 

BW Util Bottlenecks: 
RCDc_limit = 13261 
RCDWRc_limit = 3472 
WTRc_limit = 7207 
RTWc_limit = 26886 
CCDLc_limit = 9703 
rwq = 0 
CCDLc_limit_alone = 6081 
WTRc_limit_alone = 6313 
RTWc_limit_alone = 24158 

Commands details: 
total_CMD = 38636 
n_nop = 11465 
Read = 17036 
Write = 0 
L2_Alloc = 0 
L2_WB = 7141 
n_act = 4296 
n_pre = 4280 
n_ref = 0 
n_req = 18895 
total_req = 24177 

Dual Bus Interface Util: 
issued_total_row = 8576 
issued_total_col = 24177 
Row_Bus_Util =  0.221969 
CoL_Bus_Util = 0.625764 
Either_Row_CoL_Bus_Util = 0.703256 
Issued_on_Two_Bus_Simul_Util = 0.144477 
issued_two_Eff = 0.205440 
queue_avg = 55.020863 


dram_util_bins: 0 0 0 0 0 0 0 0 0 0
dram_eff_bins: 0 0 0 0 0 0 0 0 0 0
mrqq: max=64 avg=55.0209
Memory Partition 29: 
Cache L2_bank_058:

Cache L2_bank_059:

In Dram Latency Queue (total = 113): 
DRAM[29]: 16 bks, busW=16 BL=2 CL=12, tRRD=3 tCCD=1, tRCD=12 tRAS=28 tRP=12 tRC=40
n_cmd=38636 n_nop=12907 n_act=4448 n_pre=4432 n_ref_event=0 n_req=17182 n_rd=15250 n_rd_L2_A=0 n_write=0 n_wr_bk=6987 bw_util=0.5756
n_activity=34080 dram_eff=0.6525
bk0: 861a 24797i bk1: 867a 24667i bk2: 769a 29589i bk3: 762a 29325i bk4: 762a 29581i bk5: 763a 29867i bk6: 824a 25832i bk7: 841a 24962i bk8: 1064a 18902i bk9: 1071a 18719i bk10: 1120a 14029i bk11: 1120a 12184i bk12: 1120a 14580i bk13: 1120a 15412i bk14: 1096a 18640i bk15: 1090a 18882i 

------------------------------------------------------------------------

Row_Buffer_Locality = 0.740098
Row_Buffer_Locality_read = 0.792945
Row_Buffer_Locality_write = 0.308146
Bank_Level_Parallism = 8.399771
Bank_Level_Parallism_Col = 5.737674
Bank_Level_Parallism_Ready = 1.943697
write_to_read_ratio_blp_rw_average = 0.387741
GrpLevelPara = 3.284317 

BW Util details:
bwutil = 0.575551 
total_CMD = 38636 
util_bw = 22237 
Wasted_Col = 11254 
Wasted_Row = 476 
Idle = 4669 

BW Util Bottlenecks: 
RCDc_limit = 14997 
RCDWRc_limit = 3970 
WTRc_limit = 7416 
RTWc_limit = 32140 
CCDLc_limit = 10122 
rwq = 0 
CCDLc_limit_alone = 6026 
WTRc_limit_alone = 6536 
RTWc_limit_alone = 28924 

Commands details: 
total_CMD = 38636 
n_nop = 12907 
Read = 15250 
Write = 0 
L2_Alloc = 0 
L2_WB = 6987 
n_act = 4448 
n_pre = 4432 
n_ref = 0 
n_req = 17182 
total_req = 22237 

Dual Bus Interface Util: 
issued_total_row = 8880 
issued_total_col = 22237 
Row_Bus_Util =  0.229837 
CoL_Bus_Util = 0.575551 
Either_Row_CoL_Bus_Util = 0.665933 
Issued_on_Two_Bus_Simul_Util = 0.139455 
issued_two_Eff = 0.209413 
queue_avg = 50.134823 


dram_util_bins: 0 0 0 0 0 0 0 0 0 0
dram_eff_bins: 0 0 0 0 0 0 0 0 0 0
mrqq: max=64 avg=50.1348
Memory Partition 30: 
Cache L2_bank_060:

Cache L2_bank_061:

In Dram Latency Queue (total = 113): 
DRAM[30]: 16 bks, busW=16 BL=2 CL=12, tRRD=3 tCCD=1, tRCD=12 tRAS=28 tRP=12 tRC=40
n_cmd=38636 n_nop=11736 n_act=4362 n_pre=4348 n_ref_event=0 n_req=18564 n_rd=16724 n_rd_L2_A=0 n_write=0 n_wr_bk=7058 bw_util=0.6155
n_activity=34347 dram_eff=0.6924
bk0: 908a 25875i bk1: 900a 26055i bk2: 784a 29375i bk3: 784a 29366i bk4: 780a 30222i bk5: 776a 30103i bk6: 896a 24624i bk7: 928a 23220i bk8: 1216a 16936i bk9: 1224a 15449i bk10: 1280a 14058i bk11: 1280a 14370i bk12: 1280a 15286i bk13: 1280a 15710i bk14: 1224a 19015i bk15: 1184a 19942i 

------------------------------------------------------------------------

Row_Buffer_Locality = 0.764000
Row_Buffer_Locality_read = 0.813856
Row_Buffer_Locality_write = 0.293055
Bank_Level_Parallism = 8.369282
Bank_Level_Parallism_Col = 5.818029
Bank_Level_Parallism_Ready = 1.980784
write_to_read_ratio_blp_rw_average = 0.368611
GrpLevelPara = 3.330198 

BW Util details:
bwutil = 0.615540 
total_CMD = 38636 
util_bw = 23782 
Wasted_Col = 10285 
Wasted_Row = 232 
Idle = 4337 

BW Util Bottlenecks: 
RCDc_limit = 13548 
RCDWRc_limit = 3580 
WTRc_limit = 7725 
RTWc_limit = 30104 
CCDLc_limit = 10149 
rwq = 0 
CCDLc_limit_alone = 6126 
WTRc_limit_alone = 6734 
RTWc_limit_alone = 27072 

Commands details: 
total_CMD = 38636 
n_nop = 11736 
Read = 16724 
Write = 0 
L2_Alloc = 0 
L2_WB = 7058 
n_act = 4362 
n_pre = 4348 
n_ref = 0 
n_req = 18564 
total_req = 23782 

Dual Bus Interface Util: 
issued_total_row = 8710 
issued_total_col = 23782 
Row_Bus_Util =  0.225437 
CoL_Bus_Util = 0.615540 
Either_Row_CoL_Bus_Util = 0.696242 
Issued_on_Two_Bus_Simul_Util = 0.144735 
issued_two_Eff = 0.207881 
queue_avg = 55.464775 


dram_util_bins: 0 0 0 0 0 0 0 0 0 0
dram_eff_bins: 0 0 0 0 0 0 0 0 0 0
mrqq: max=64 avg=55.4648
Memory Partition 31: 
Cache L2_bank_062:

Cache L2_bank_063:

In Dram Latency Queue (total = 113): 
DRAM[31]: 16 bks, busW=16 BL=2 CL=12, tRRD=3 tCCD=1, tRCD=12 tRAS=28 tRP=12 tRC=40
n_cmd=38636 n_nop=13314 n_act=4392 n_pre=4377 n_ref_event=0 n_req=16967 n_rd=15046 n_rd_L2_A=0 n_write=0 n_wr_bk=6938 bw_util=0.569
n_activity=33534 dram_eff=0.6556
bk0: 848a 24955i bk1: 844a 25162i bk2: 737a 29374i bk3: 741a 29152i bk4: 733a 30314i bk5: 730a 29790i bk6: 803a 25785i bk7: 820a 25556i bk8: 1064a 17621i bk9: 1071a 16614i bk10: 1120a 14671i bk11: 1120a 14180i bk12: 1120a 15460i bk13: 1120a 16464i bk14: 1094a 19594i bk15: 1081a 18489i 

------------------------------------------------------------------------

Row_Buffer_Locality = 0.739987
Row_Buffer_Locality_read = 0.797727
Row_Buffer_Locality_write = 0.271305
Bank_Level_Parallism = 8.460979
Bank_Level_Parallism_Col = 5.788306
Bank_Level_Parallism_Ready = 1.922307
write_to_read_ratio_blp_rw_average = 0.381946
GrpLevelPara = 3.280675 

BW Util details:
bwutil = 0.569003 
total_CMD = 38636 
util_bw = 21984 
Wasted_Col = 10730 
Wasted_Row = 602 
Idle = 5320 

BW Util Bottlenecks: 
RCDc_limit = 14000 
RCDWRc_limit = 4131 
WTRc_limit = 7911 
RTWc_limit = 29726 
CCDLc_limit = 9700 
rwq = 0 
CCDLc_limit_alone = 5821 
WTRc_limit_alone = 6907 
RTWc_limit_alone = 26851 

Commands details: 
total_CMD = 38636 
n_nop = 13314 
Read = 15046 
Write = 0 
L2_Alloc = 0 
L2_WB = 6938 
n_act = 4392 
n_pre = 4377 
n_ref = 0 
n_req = 16967 
total_req = 21984 

Dual Bus Interface Util: 
issued_total_row = 8769 
issued_total_col = 21984 
Row_Bus_Util =  0.226964 
CoL_Bus_Util = 0.569003 
Either_Row_CoL_Bus_Util = 0.655399 
Issued_on_Two_Bus_Simul_Util = 0.140568 
issued_two_Eff = 0.214478 
queue_avg = 49.136997 


dram_util_bins: 0 0 0 0 0 0 0 0 0 0
dram_eff_bins: 0 0 0 0 0 0 0 0 0 0
mrqq: max=64 avg=49.137

========= L2 cache stats =========
L2_cache_bank[0]: Access = 14278, Miss = 14278, Miss_rate = 1.000, Pending_hits = 0, Reservation_fails = 0
L2_cache_bank[1]: Access = 14251, Miss = 14251, Miss_rate = 1.000, Pending_hits = 0, Reservation_fails = 0
L2_cache_bank[2]: Access = 13284, Miss = 13284, Miss_rate = 1.000, Pending_hits = 0, Reservation_fails = 0
L2_cache_bank[3]: Access = 13352, Miss = 13352, Miss_rate = 1.000, Pending_hits = 0, Reservation_fails = 0
L2_cache_bank[4]: Access = 14245, Miss = 14245, Miss_rate = 1.000, Pending_hits = 0, Reservation_fails = 0
L2_cache_bank[5]: Access = 14168, Miss = 14168, Miss_rate = 1.000, Pending_hits = 0, Reservation_fails = 0
L2_cache_bank[6]: Access = 13038, Miss = 13038, Miss_rate = 1.000, Pending_hits = 0, Reservation_fails = 0
L2_cache_bank[7]: Access = 12963, Miss = 12963, Miss_rate = 1.000, Pending_hits = 0, Reservation_fails = 0
L2_cache_bank[8]: Access = 14396, Miss = 14396, Miss_rate = 1.000, Pending_hits = 0, Reservation_fails = 0
L2_cache_bank[9]: Access = 14404, Miss = 14404, Miss_rate = 1.000, Pending_hits = 0, Reservation_fails = 0
L2_cache_bank[10]: Access = 13118, Miss = 13118, Miss_rate = 1.000, Pending_hits = 0, Reservation_fails = 0
L2_cache_bank[11]: Access = 13175, Miss = 13175, Miss_rate = 1.000, Pending_hits = 0, Reservation_fails = 0
L2_cache_bank[12]: Access = 14259, Miss = 14259, Miss_rate = 1.000, Pending_hits = 0, Reservation_fails = 0
L2_cache_bank[13]: Access = 14232, Miss = 14232, Miss_rate = 1.000, Pending_hits = 0, Reservation_fails = 0
L2_cache_bank[14]: Access = 13116, Miss = 13116, Miss_rate = 1.000, Pending_hits = 0, Reservation_fails = 0
L2_cache_bank[15]: Access = 13143, Miss = 13143, Miss_rate = 1.000, Pending_hits = 0, Reservation_fails = 0
L2_cache_bank[16]: Access = 14050, Miss = 14050, Miss_rate = 1.000, Pending_hits = 0, Reservation_fails = 0
L2_cache_bank[17]: Access = 13910, Miss = 13910, Miss_rate = 1.000, Pending_hits = 0, Reservation_fails = 0
L2_cache_bank[18]: Access = 13101, Miss = 13101, Miss_rate = 1.000, Pending_hits = 0, Reservation_fails = 0
L2_cache_bank[19]: Access = 12942, Miss = 12942, Miss_rate = 1.000, Pending_hits = 0, Reservation_fails = 0
L2_cache_bank[20]: Access = 14083, Miss = 14083, Miss_rate = 1.000, Pending_hits = 0, Reservation_fails = 0
L2_cache_bank[21]: Access = 14054, Miss = 14054, Miss_rate = 1.000, Pending_hits = 0, Reservation_fails = 0
L2_cache_bank[22]: Access = 13140, Miss = 13140, Miss_rate = 1.000, Pending_hits = 0, Reservation_fails = 0
L2_cache_bank[23]: Access = 13079, Miss = 13079, Miss_rate = 1.000, Pending_hits = 0, Reservation_fails = 0
L2_cache_bank[24]: Access = 14229, Miss = 14229, Miss_rate = 1.000, Pending_hits = 0, Reservation_fails = 0
L2_cache_bank[25]: Access = 14184, Miss = 14184, Miss_rate = 1.000, Pending_hits = 0, Reservation_fails = 0
L2_cache_bank[26]: Access = 13128, Miss = 13128, Miss_rate = 1.000, Pending_hits = 0, Reservation_fails = 0
L2_cache_bank[27]: Access = 13007, Miss = 13007, Miss_rate = 1.000, Pending_hits = 0, Reservation_fails = 0
L2_cache_bank[28]: Access = 14230, Miss = 14230, Miss_rate = 1.000, Pending_hits = 0, Reservation_fails = 0
L2_cache_bank[29]: Access = 14120, Miss = 14120, Miss_rate = 1.000, Pending_hits = 0, Reservation_fails = 0
L2_cache_bank[30]: Access = 13314, Miss = 13314, Miss_rate = 1.000, Pending_hits = 0, Reservation_fails = 0
L2_cache_bank[31]: Access = 13218, Miss = 13218, Miss_rate = 1.000, Pending_hits = 0, Reservation_fails = 0
L2_cache_bank[32]: Access = 14127, Miss = 14127, Miss_rate = 1.000, Pending_hits = 0, Reservation_fails = 0
L2_cache_bank[33]: Access = 14096, Miss = 14096, Miss_rate = 1.000, Pending_hits = 0, Reservation_fails = 0
L2_cache_bank[34]: Access = 13264, Miss = 13264, Miss_rate = 1.000, Pending_hits = 0, Reservation_fails = 0
L2_cache_bank[35]: Access = 13298, Miss = 13298, Miss_rate = 1.000, Pending_hits = 0, Reservation_fails = 0
L2_cache_bank[36]: Access = 14108, Miss = 14108, Miss_rate = 1.000, Pending_hits = 0, Reservation_fails = 0
L2_cache_bank[37]: Access = 14046, Miss = 14046, Miss_rate = 1.000, Pending_hits = 0, Reservation_fails = 0
L2_cache_bank[38]: Access = 13093, Miss = 13093, Miss_rate = 1.000, Pending_hits = 0, Reservation_fails = 0
L2_cache_bank[39]: Access = 13068, Miss = 13068, Miss_rate = 1.000, Pending_hits = 0, Reservation_fails = 0
L2_cache_bank[40]: Access = 14128, Miss = 14128, Miss_rate = 1.000, Pending_hits = 0, Reservation_fails = 0
L2_cache_bank[41]: Access = 14081, Miss = 14081, Miss_rate = 1.000, Pending_hits = 0, Reservation_fails = 0
L2_cache_bank[42]: Access = 13143, Miss = 13143, Miss_rate = 1.000, Pending_hits = 0, Reservation_fails = 0
L2_cache_bank[43]: Access = 13047, Miss = 13047, Miss_rate = 1.000, Pending_hits = 0, Reservation_fails = 0
L2_cache_bank[44]: Access = 14067, Miss = 14067, Miss_rate = 1.000, Pending_hits = 0, Reservation_fails = 0
L2_cache_bank[45]: Access = 14035, Miss = 14035, Miss_rate = 1.000, Pending_hits = 0, Reservation_fails = 0
L2_cache_bank[46]: Access = 13020, Miss = 13020, Miss_rate = 1.000, Pending_hits = 0, Reservation_fails = 0
L2_cache_bank[47]: Access = 13033, Miss = 13033, Miss_rate = 1.000, Pending_hits = 0, Reservation_fails = 0
L2_cache_bank[48]: Access = 14108, Miss = 14108, Miss_rate = 1.000, Pending_hits = 0, Reservation_fails = 0
L2_cache_bank[49]: Access = 14239, Miss = 14239, Miss_rate = 1.000, Pending_hits = 0, Reservation_fails = 0
L2_cache_bank[50]: Access = 13166, Miss = 13166, Miss_rate = 1.000, Pending_hits = 0, Reservation_fails = 0
L2_cache_bank[51]: Access = 13253, Miss = 13253, Miss_rate = 1.000, Pending_hits = 0, Reservation_fails = 0
L2_cache_bank[52]: Access = 14006, Miss = 14006, Miss_rate = 1.000, Pending_hits = 0, Reservation_fails = 0
L2_cache_bank[53]: Access = 14087, Miss = 14087, Miss_rate = 1.000, Pending_hits = 0, Reservation_fails = 0
L2_cache_bank[54]: Access = 13087, Miss = 13087, Miss_rate = 1.000, Pending_hits = 0, Reservation_fails = 0
L2_cache_bank[55]: Access = 13142, Miss = 13142, Miss_rate = 1.000, Pending_hits = 0, Reservation_fails = 0
L2_cache_bank[56]: Access = 14265, Miss = 14265, Miss_rate = 1.000, Pending_hits = 0, Reservation_fails = 0
L2_cache_bank[57]: Access = 14251, Miss = 14251, Miss_rate = 1.000, Pending_hits = 0, Reservation_fails = 0
L2_cache_bank[58]: Access = 13234, Miss = 13234, Miss_rate = 1.000, Pending_hits = 0, Reservation_fails = 0
L2_cache_bank[59]: Access = 13204, Miss = 13204, Miss_rate = 1.000, Pending_hits = 0, Reservation_fails = 0
L2_cache_bank[60]: Access = 14274, Miss = 14274, Miss_rate = 1.000, Pending_hits = 0, Reservation_fails = 0
L2_cache_bank[61]: Access = 14303, Miss = 14303, Miss_rate = 1.000, Pending_hits = 0, Reservation_fails = 0
L2_cache_bank[62]: Access = 13219, Miss = 13219, Miss_rate = 1.000, Pending_hits = 0, Reservation_fails = 0
L2_cache_bank[63]: Access = 13201, Miss = 13201, Miss_rate = 1.000, Pending_hits = 0, Reservation_fails = 0
L2_total_cache_accesses = 873904
L2_total_cache_misses = 873904
L2_total_cache_miss_rate = 1.0000
L2_total_cache_pending_hits = 0
L2_total_cache_reservation_fails = 0
L2_total_cache_breakdown:
	L2_cache_stats_breakdown[GLOBAL_ACC_R][HIT] = 0
	L2_cache_stats_breakdown[GLOBAL_ACC_R][HIT_RESERVED] = 0
	L2_cache_stats_breakdown[GLOBAL_ACC_R][MISS] = 138410
	L2_cache_stats_breakdown[GLOBAL_ACC_R][RESERVATION_FAIL] = 0
	L2_cache_stats_breakdown[GLOBAL_ACC_R][SECTOR_MISS] = 380858
	L2_cache_stats_breakdown[LOCAL_ACC_R][HIT] = 0
	L2_cache_stats_breakdown[LOCAL_ACC_R][HIT_RESERVED] = 0
	L2_cache_stats_breakdown[LOCAL_ACC_R][MISS] = 0
	L2_cache_stats_breakdown[LOCAL_ACC_R][RESERVATION_FAIL] = 0
	L2_cache_stats_breakdown[LOCAL_ACC_R][SECTOR_MISS] = 0
	L2_cache_stats_breakdown[CONST_ACC_R][HIT] = 0
	L2_cache_stats_breakdown[CONST_ACC_R][HIT_RESERVED] = 0
	L2_cache_stats_breakdown[CONST_ACC_R][MISS] = 0
	L2_cache_stats_breakdown[CONST_ACC_R][RESERVATION_FAIL] = 0
	L2_cache_stats_breakdown[CONST_ACC_R][SECTOR_MISS] = 0
	L2_cache_stats_breakdown[TEXTURE_ACC_R][HIT] = 0
	L2_cache_stats_breakdown[TEXTURE_ACC_R][HIT_RESERVED] = 0
	L2_cache_stats_breakdown[TEXTURE_ACC_R][MISS] = 0
	L2_cache_stats_breakdown[TEXTURE_ACC_R][RESERVATION_FAIL] = 0
	L2_cache_stats_breakdown[TEXTURE_ACC_R][SECTOR_MISS] = 0
	L2_cache_stats_breakdown[GLOBAL_ACC_W][HIT] = 0
	L2_cache_stats_breakdown[GLOBAL_ACC_W][HIT_RESERVED] = 0
	L2_cache_stats_breakdown[GLOBAL_ACC_W][MISS] = 84179
	L2_cache_stats_breakdown[GLOBAL_ACC_W][RESERVATION_FAIL] = 0
	L2_cache_stats_breakdown[GLOBAL_ACC_W][SECTOR_MISS] = 270457
	L2_cache_stats_breakdown[LOCAL_ACC_W][HIT] = 0
	L2_cache_stats_breakdown[LOCAL_ACC_W][HIT_RESERVED] = 0
	L2_cache_stats_breakdown[LOCAL_ACC_W][MISS] = 0
	L2_cache_stats_breakdown[LOCAL_ACC_W][RESERVATION_FAIL] = 0
	L2_cache_stats_breakdown[LOCAL_ACC_W][SECTOR_MISS] = 0
	L2_cache_stats_breakdown[L1_WRBK_ACC][HIT] = 0
	L2_cache_stats_breakdown[L1_WRBK_ACC][HIT_RESERVED] = 0
	L2_cache_stats_breakdown[L1_WRBK_ACC][MISS] = 0
	L2_cache_stats_breakdown[L1_WRBK_ACC][RESERVATION_FAIL] = 0
	L2_cache_stats_breakdown[L1_WRBK_ACC][SECTOR_MISS] = 0
	L2_cache_stats_breakdown[L2_WRBK_ACC][HIT] = 0
	L2_cache_stats_breakdown[L2_WRBK_ACC][HIT_RESERVED] = 0
	L2_cache_stats_breakdown[L2_WRBK_ACC][MISS] = 0
	L2_cache_stats_breakdown[L2_WRBK_ACC][RESERVATION_FAIL] = 0
	L2_cache_stats_breakdown[L2_WRBK_ACC][SECTOR_MISS] = 0
	L2_cache_stats_breakdown[INST_ACC_R][HIT] = 0
	L2_cache_stats_breakdown[INST_ACC_R][HIT_RESERVED] = 0
	L2_cache_stats_breakdown[INST_ACC_R][MISS] = 0
	L2_cache_stats_breakdown[INST_ACC_R][RESERVATION_FAIL] = 0
	L2_cache_stats_breakdown[INST_ACC_R][SECTOR_MISS] = 0
	L2_cache_stats_breakdown[L1_WR_ALLOC_R][HIT] = 0
	L2_cache_stats_breakdown[L1_WR_ALLOC_R][HIT_RESERVED] = 0
	L2_cache_stats_breakdown[L1_WR_ALLOC_R][MISS] = 0
	L2_cache_stats_breakdown[L1_WR_ALLOC_R][RESERVATION_FAIL] = 0
	L2_cache_stats_breakdown[L1_WR_ALLOC_R][SECTOR_MISS] = 0
	L2_cache_stats_breakdown[L2_WR_ALLOC_R][HIT] = 0
	L2_cache_stats_breakdown[L2_WR_ALLOC_R][HIT_RESERVED] = 0
	L2_cache_stats_breakdown[L2_WR_ALLOC_R][MISS] = 0
	L2_cache_stats_breakdown[L2_WR_ALLOC_R][RESERVATION_FAIL] = 0
	L2_cache_stats_breakdown[L2_WR_ALLOC_R][SECTOR_MISS] = 0
	L2_cache_stats_breakdown[GLOBAL_ACC_R][TOTAL_ACCESS] = 519268
	L2_cache_stats_breakdown[GLOBAL_ACC_W][TOTAL_ACCESS] = 354636
L2_total_cache_reservation_fail_breakdown:
L2_cache_data_port_util = 0.033
L2_cache_fill_port_util = 0.156

icnt_total_pkts_mem_to_simt=867208
icnt_total_pkts_simt_to_mem=936332
LD_mem_lat_dist  0 0 0 0 0 0 0 0 0 0 0 0 0 0 0 0 0 0 0 0 0 0 0 0 0 0 0
ST_mem_lat_dist  0 0 0 0 0 0 0 0 0 0 0 0 0 0 0 0 0 0 0 0 0 0 0 0 0 0 0
----------------------------Interconnect-DETAILS--------------------------------
Req_Network_injected_packets_num = 936332
Req_Network_cycles = 51455
Req_Network_injected_packets_per_cycle =      18.1971 
Req_Network_conflicts_per_cycle =      48.7617
Req_Network_conflicts_per_cycle_util =      54.2142
Req_Bank_Level_Parallism =      19.3476
Req_Network_in_buffer_full_per_cycle =      53.6514
Req_Network_in_buffer_avg_util =     453.7838
Req_Network_out_buffer_full_per_cycle =       6.9430
Req_Network_out_buffer_avg_util =     235.0782

Reply_Network_injected_packets_num = 867249
Reply_Network_cycles = 51455
Reply_Network_injected_packets_per_cycle =       16.8545
Reply_Network_conflicts_per_cycle =        5.3625
Reply_Network_conflicts_per_cycle_util =       6.2692
Reply_Bank_Level_Parallism =      19.7040
Reply_Network_in_buffer_full_per_cycle =       0.0104
Reply_Network_in_buffer_avg_util =       6.2954
Reply_Network_out_buffer_full_per_cycle =       0.0000
Reply_Network_out_buffer_avg_util =       0.2107
----------------------------END-of-Interconnect-DETAILS-------------------------


gpgpu_simulation_time = 0 days, 0 hrs, 9 min, 18 sec (558 sec)
gpgpu_simulation_rate = 65274 (inst/sec)
gpgpu_simulation_rate = 92 (cycle/sec)
gpgpu_silicon_slowdown = 12304347x
GPGPU-Sim: *** simulation thread exiting ***
GPGPU-Sim: ** break due to reaching the maximum cycles (or instructions) **
GPGPU-Sim: *** exit detected ***
