

        *** GPGPU-Sim Simulator Version 4.0.0  [build gpgpu-sim_git-commit-ffe0a1a00e984ecce9bf36e17ab94c4de0de8108_modified_0.0] ***


GPGPU-Sim PTX: simulation mode 0 (can change with PTX_SIM_MODE_FUNC environment variable:
               1=functional simulation only, 0=detailed performance simulator)
GPGPU-Sim PTX: overriding embedded ptx with ptx file (PTX_SIM_USE_PTX_FILE is set)
GPGPU-Sim: Configuration options:

-save_embedded_ptx                      0 # saves ptx files embedded in binary as <n>.ptx
-keep                                   0 # keep intermediate files created by GPGPU-Sim when interfacing with external programs
-gpgpu_ptx_save_converted_ptxplus                    0 # Saved converted ptxplus to a file
-gpgpu_occupancy_sm_number                   70 # The SM number to pass to ptxas when getting register usage for computing GPU occupancy. This parameter is required in the config.
-ptx_opcode_latency_int      4,13,4,5,145,21 # Opcode latencies for integers <ADD,MAX,MUL,MAD,DIV,SHFL>Default 1,1,19,25,145,32
-ptx_opcode_latency_fp          4,13,4,5,39 # Opcode latencies for single precision floating points <ADD,MAX,MUL,MAD,DIV>Default 1,1,1,1,30
-ptx_opcode_latency_dp         8,19,8,8,330 # Opcode latencies for double precision floating points <ADD,MAX,MUL,MAD,DIV>Default 8,8,8,8,335
-ptx_opcode_latency_sfu                  100 # Opcode latencies for SFU instructionsDefault 8
-ptx_opcode_latency_tesnor                   64 # Opcode latencies for Tensor instructionsDefault 64
-ptx_opcode_initiation_int          2,2,2,2,8,4 # Opcode initiation intervals for integers <ADD,MAX,MUL,MAD,DIV,SHFL>Default 1,1,4,4,32,4
-ptx_opcode_initiation_fp            2,2,2,2,4 # Opcode initiation intervals for single precision floating points <ADD,MAX,MUL,MAD,DIV>Default 1,1,1,1,5
-ptx_opcode_initiation_dp          4,4,4,4,130 # Opcode initiation intervals for double precision floating points <ADD,MAX,MUL,MAD,DIV>Default 8,8,8,8,130
-ptx_opcode_initiation_sfu                    8 # Opcode initiation intervals for sfu instructionsDefault 8
-ptx_opcode_initiation_tensor                   64 # Opcode initiation intervals for tensor instructionsDefault 64
-cdp_latency         7200,8000,100,12000,1600 # CDP API latency <cudaStreamCreateWithFlags, cudaGetParameterBufferV2_init_perWarp, cudaGetParameterBufferV2_perKernel, cudaLaunchDeviceV2_init_perWarp, cudaLaunchDevicV2_perKernel>Default 7200,8000,100,12000,1600
-network_mode                           2 # Interconnection network mode
-inter_config_file                   mesh # Interconnection network config file
-icnt_in_buffer_limit                  512 # in_buffer_limit
-icnt_out_buffer_limit                  512 # out_buffer_limit
-icnt_subnets                           2 # subnets
-icnt_arbiter_algo                      1 # arbiter_algo
-icnt_verbose                           0 # inct_verbose
-icnt_grant_cycles                      1 # grant_cycles
-gpgpu_ptx_use_cuobjdump                    1 # Use cuobjdump to extract ptx and sass from binaries
-gpgpu_experimental_lib_support                    0 # Try to extract code from cuda libraries [Broken because of unknown cudaGetExportTable]
-checkpoint_option                      0 #  checkpointing flag (0 = no checkpoint)
-checkpoint_kernel                      1 #  checkpointing during execution of which kernel (1- 1st kernel)
-checkpoint_CTA                         0 #  checkpointing after # of CTA (< less than total CTA)
-resume_option                          0 #  resume flag (0 = no resume)
-resume_kernel                          0 #  Resume from which kernel (1= 1st kernel)
-resume_CTA                             0 #  resume from which CTA 
-checkpoint_CTA_t                       0 #  resume from which CTA 
-checkpoint_insn_Y                      0 #  resume from which CTA 
-gpgpu_ptx_convert_to_ptxplus                    0 # Convert SASS (native ISA) to ptxplus and run ptxplus
-gpgpu_ptx_force_max_capability                   70 # Force maximum compute capability
-gpgpu_ptx_inst_debug_to_file                    0 # Dump executed instructions' debug information to file
-gpgpu_ptx_inst_debug_file       inst_debug.txt # Executed instructions' debug output file
-gpgpu_ptx_inst_debug_thread_uid                    1 # Thread UID for executed instructions' debug output
-gpgpu_n_mem_for_l2wb_pcommit                   32 # number of memory modules (e.g. memory controllers) in gpu
-gpgpu_n_sub_partition_per_mchannel_for_l2wb_pcommit                    2 # number of memory subpartition in each memory module
-gpgpu_dl2_bsize_for_l2wb_pcommit                  128 # default 128 bytes
-gpgpu_simd_model                       1 # 1 = post-dominator
-gpgpu_shader_core_pipeline              2048:32 # shader core pipeline config, i.e., {<nthread>:<warpsize>}
-gpgpu_tex_cache:l1  N:4:128:256,L:R:m:N:L,T:512:8,128:2 # per-shader L1 texture cache  (READ-ONLY) config  {<nsets>:<bsize>:<assoc>,<rep>:<wr>:<alloc>:<wr_alloc>,<mshr>:<N>:<merge>,<mq>:<rf>}
-gpgpu_const_cache:l1 N:128:64:8,L:R:f:N:L,S:2:64,4 # per-shader L1 constant memory cache  (READ-ONLY) config  {<nsets>:<bsize>:<assoc>,<rep>:<wr>:<alloc>:<wr_alloc>,<mshr>:<N>:<merge>,<mq>} 
-gpgpu_cache:il1     N:64:128:16,L:R:f:N:L,S:2:48,4 # shader L1 instruction cache config  {<nsets>:<bsize>:<assoc>,<rep>:<wr>:<alloc>:<wr_alloc>,<mshr>:<N>:<merge>,<mq>} 
-gpgpu_cache:dl1     S:1:128:256,L:L:s:N:L,A:256:8,16:0,32 # per-shader L1 data cache config  {<nsets>:<bsize>:<assoc>,<rep>:<wr>:<alloc>:<wr_alloc>,<mshr>:<N>:<merge>,<mq> | none}
-gpgpu_l1_banks                         4 # The number of L1 cache banks
-gpgpu_l1_banks_byte_interleaving                   32 # l1 banks byte interleaving granularity
-gpgpu_l1_banks_hashing_function                    0 # l1 banks hashing function
-gpgpu_l1_latency                      20 # L1 Hit Latency
-gpgpu_smem_latency                    20 # smem Latency
-gpgpu_cache:dl1PrefL1                 none # per-shader L1 data cache config  {<nsets>:<bsize>:<assoc>,<rep>:<wr>:<alloc>:<wr_alloc>,<mshr>:<N>:<merge>,<mq> | none}
-gpgpu_cache:dl1PrefShared                 none # per-shader L1 data cache config  {<nsets>:<bsize>:<assoc>,<rep>:<wr>:<alloc>:<wr_alloc>,<mshr>:<N>:<merge>,<mq> | none}
-gpgpu_gmem_skip_L1D                    0 # global memory access skip L1D cache (implements -Xptxas -dlcm=cg, default=no skip)
-gpgpu_perfect_mem                      0 # enable perfect memory mode (no cache miss)
-n_regfile_gating_group                    4 # group of lanes that should be read/written together)
-gpgpu_clock_gated_reg_file                    0 # enable clock gated reg file for power calculations
-gpgpu_clock_gated_lanes                    0 # enable clock gated lanes for power calculations
-gpgpu_shader_registers                65536 # Number of registers per shader core. Limits number of concurrent CTAs. (default 8192)
-gpgpu_registers_per_block                65536 # Maximum number of registers per CTA. (default 8192)
-gpgpu_ignore_resources_limitation                    0 # gpgpu_ignore_resources_limitation (default 0)
-gpgpu_shader_cta                      32 # Maximum number of concurrent CTAs in shader (default 8)
-gpgpu_num_cta_barriers                   16 # Maximum number of named barriers per CTA (default 16)
-gpgpu_n_clusters                      80 # number of processing clusters
-gpgpu_n_cores_per_cluster                    1 # number of simd cores per cluster
-gpgpu_n_cluster_ejection_buffer_size                   32 # number of packets in ejection buffer
-gpgpu_n_ldst_response_buffer_size                    2 # number of response packets in ld/st unit ejection buffer
-gpgpu_shmem_per_block                65536 # Size of shared memory per thread block or CTA (default 48kB)
-gpgpu_shmem_size                   98304 # Size of shared memory per shader core (default 16kB)
-gpgpu_adaptive_cache_config            536870913 # adaptive_cache_config
-gpgpu_shmem_sizeDefault                98304 # Size of shared memory per shader core (default 16kB)
-gpgpu_shmem_size_PrefL1                16384 # Size of shared memory per shader core (default 16kB)
-gpgpu_shmem_size_PrefShared                16384 # Size of shared memory per shader core (default 16kB)
-gpgpu_shmem_num_banks                   32 # Number of banks in the shared memory in each shader core (default 16)
-gpgpu_shmem_limited_broadcast                    0 # Limit shared memory to do one broadcast per cycle (default on)
-gpgpu_shmem_warp_parts                    1 # Number of portions a warp is divided into for shared memory bank conflict check 
-gpgpu_mem_unit_ports                    1 # The number of memory transactions allowed per core cycle
-gpgpu_shmem_warp_parts                    1 # Number of portions a warp is divided into for shared memory bank conflict check 
-gpgpu_warpdistro_shader                   -1 # Specify which shader core to collect the warp size distribution from
-gpgpu_warp_issue_shader                    0 # Specify which shader core to collect the warp issue distribution from
-gpgpu_local_mem_map                    1 # Mapping from local memory space address to simulated GPU physical address space (default = enabled)
-gpgpu_num_reg_banks                   16 # Number of register banks (default = 8)
-gpgpu_reg_bank_use_warp_id                    0 # Use warp ID in mapping registers to banks (default = off)
-gpgpu_sub_core_model                    1 # Sub Core Volta/Pascal model (default = off)
-gpgpu_enable_specialized_operand_collector                    0 # enable_specialized_operand_collector
-gpgpu_operand_collector_num_units_sp                    4 # number of collector units (default = 4)
-gpgpu_operand_collector_num_units_dp                    0 # number of collector units (default = 0)
-gpgpu_operand_collector_num_units_sfu                    4 # number of collector units (default = 4)
-gpgpu_operand_collector_num_units_int                    0 # number of collector units (default = 0)
-gpgpu_operand_collector_num_units_tensor_core                    4 # number of collector units (default = 4)
-gpgpu_operand_collector_num_units_mem                    2 # number of collector units (default = 2)
-gpgpu_operand_collector_num_units_gen                    8 # number of collector units (default = 0)
-gpgpu_operand_collector_num_in_ports_sp                    1 # number of collector unit in ports (default = 1)
-gpgpu_operand_collector_num_in_ports_dp                    0 # number of collector unit in ports (default = 0)
-gpgpu_operand_collector_num_in_ports_sfu                    1 # number of collector unit in ports (default = 1)
-gpgpu_operand_collector_num_in_ports_int                    0 # number of collector unit in ports (default = 0)
-gpgpu_operand_collector_num_in_ports_tensor_core                    1 # number of collector unit in ports (default = 1)
-gpgpu_operand_collector_num_in_ports_mem                    1 # number of collector unit in ports (default = 1)
-gpgpu_operand_collector_num_in_ports_gen                    8 # number of collector unit in ports (default = 0)
-gpgpu_operand_collector_num_out_ports_sp                    1 # number of collector unit in ports (default = 1)
-gpgpu_operand_collector_num_out_ports_dp                    0 # number of collector unit in ports (default = 0)
-gpgpu_operand_collector_num_out_ports_sfu                    1 # number of collector unit in ports (default = 1)
-gpgpu_operand_collector_num_out_ports_int                    0 # number of collector unit in ports (default = 0)
-gpgpu_operand_collector_num_out_ports_tensor_core                    1 # number of collector unit in ports (default = 1)
-gpgpu_operand_collector_num_out_ports_mem                    1 # number of collector unit in ports (default = 1)
-gpgpu_operand_collector_num_out_ports_gen                    8 # number of collector unit in ports (default = 0)
-gpgpu_coalesce_arch                   60 # Coalescing arch (GT200 = 13, Fermi = 20)
-gpgpu_num_sched_per_core                    4 # Number of warp schedulers per core
-gpgpu_max_insn_issue_per_warp                    1 # Max number of instructions that can be issued per warp in one cycle by scheduler (either 1 or 2)
-gpgpu_dual_issue_diff_exec_units                    1 # should dual issue use two different execution unit resources (Default = 1)
-gpgpu_simt_core_sim_order                    1 # Select the simulation order of cores in a cluster (0=Fix, 1=Round-Robin)
-gpgpu_pipeline_widths 4,4,4,4,4,4,4,4,4,4,8,4,4 # Pipeline widths ID_OC_SP,ID_OC_DP,ID_OC_INT,ID_OC_SFU,ID_OC_MEM,OC_EX_SP,OC_EX_DP,OC_EX_INT,OC_EX_SFU,OC_EX_MEM,EX_WB,ID_OC_TENSOR_CORE,OC_EX_TENSOR_CORE
-gpgpu_tensor_core_avail                    1 # Tensor Core Available (default=0)
-gpgpu_num_sp_units                     4 # Number of SP units (default=1)
-gpgpu_num_dp_units                     4 # Number of DP units (default=0)
-gpgpu_num_int_units                    4 # Number of INT units (default=0)
-gpgpu_num_sfu_units                    4 # Number of SF units (default=1)
-gpgpu_num_tensor_core_units                    4 # Number of tensor_core units (default=1)
-gpgpu_num_mem_units                    1 # Number if ldst units (default=1) WARNING: not hooked up to anything
-gpgpu_scheduler                      gto # Scheduler configuration: < lrr | gto | two_level_active > If two_level_active:<num_active_warps>:<inner_prioritization>:<outer_prioritization>For complete list of prioritization values see shader.h enum scheduler_prioritization_typeDefault: gto
-gpgpu_concurrent_kernel_sm                    0 # Support concurrent kernels on a SM (default = disabled)
-gpgpu_perfect_inst_const_cache                    1 # perfect inst and const cache mode, so all inst and const hits in the cache(default = disabled)
-gpgpu_inst_fetch_throughput                    4 # the number of fetched intruction per warp each cycle
-gpgpu_reg_file_port_throughput                    2 # the number ports of the register file
-specialized_unit_1         0,4,4,4,4,BRA # specialized unit config {<enabled>,<num_units>:<latency>:<initiation>,<ID_OC_SPEC>:<OC_EX_SPEC>,<NAME>}
-specialized_unit_2         0,4,4,4,4,BRA # specialized unit config {<enabled>,<num_units>:<latency>:<initiation>,<ID_OC_SPEC>:<OC_EX_SPEC>,<NAME>}
-specialized_unit_3         0,4,4,4,4,BRA # specialized unit config {<enabled>,<num_units>:<latency>:<initiation>,<ID_OC_SPEC>:<OC_EX_SPEC>,<NAME>}
-specialized_unit_4         0,4,4,4,4,BRA # specialized unit config {<enabled>,<num_units>:<latency>:<initiation>,<ID_OC_SPEC>:<OC_EX_SPEC>,<NAME>}
-specialized_unit_5         0,4,4,4,4,BRA # specialized unit config {<enabled>,<num_units>:<latency>:<initiation>,<ID_OC_SPEC>:<OC_EX_SPEC>,<NAME>}
-specialized_unit_6         0,4,4,4,4,BRA # specialized unit config {<enabled>,<num_units>:<latency>:<initiation>,<ID_OC_SPEC>:<OC_EX_SPEC>,<NAME>}
-specialized_unit_7         0,4,4,4,4,BRA # specialized unit config {<enabled>,<num_units>:<latency>:<initiation>,<ID_OC_SPEC>:<OC_EX_SPEC>,<NAME>}
-specialized_unit_8         0,4,4,4,4,BRA # specialized unit config {<enabled>,<num_units>:<latency>:<initiation>,<ID_OC_SPEC>:<OC_EX_SPEC>,<NAME>}
-gpgpu_perf_sim_memcpy                    1 # Fill the L2 cache on memcpy
-gpgpu_simple_dram_model                    0 # simple_dram_model with fixed latency and BW
-gpgpu_dram_scheduler                    1 # 0 = fifo, 1 = FR-FCFS (defaul)
-gpgpu_dram_partition_queues          64:64:64:64 # i2$:$2d:d2$:$2i
-l2_ideal                               0 # Use a ideal L2 cache that always hit
-gpgpu_cache:dl2     S:32:128:24,L:B:m:L:P,A:192:4,32:0,32 # unified banked L2 data cache config  {<nsets>:<bsize>:<assoc>,<rep>:<wr>:<alloc>:<wr_alloc>,<mshr>:<N>:<merge>,<mq>}
-gpgpu_cache:dl2_texture_only                    0 # L2 cache used for texture only
-gpgpu_n_mem                           32 # number of memory modules (e.g. memory controllers) in gpu
-gpgpu_n_sub_partition_per_mchannel                    2 # number of memory subpartition in each memory module
-gpgpu_n_mem_per_ctrlr                    1 # number of memory chips per memory controller
-gpgpu_memlatency_stat                   14 # track and display latency statistics 0x2 enables MC, 0x4 enables queue logs
-gpgpu_frfcfs_dram_sched_queue_size                   64 # 0 = unlimited (default); # entries per chip
-gpgpu_dram_return_queue_size                  192 # 0 = unlimited (default); # entries per chip
-gpgpu_dram_buswidth                   16 # default = 4 bytes (8 bytes per cycle at DDR)
-gpgpu_dram_burst_length                    2 # Burst length of each DRAM request (default = 4 data bus cycle)
-dram_data_command_freq_ratio                    2 # Frequency ratio between DRAM data bus and command bus (default = 2 times, i.e. DDR)
-gpgpu_dram_timing_opt nbk=16:CCD=1:RRD=3:RCD=12:RAS=28:RP=12:RC=40: CL=12:WL=2:CDLR=3:WR=10:nbkgrp=4:CCDL=2:RTPL=3 # DRAM timing parameters = {nbk:tCCD:tRRD:tRCD:tRAS:tRP:tRC:CL:WL:tCDLR:tWR:nbkgrp:tCCDL:tRTPL}
-gpgpu_l2_rop_latency                  160 # ROP queue latency (default 85)
-dram_latency                         200 # DRAM latency (default 30)
-dram_write_latency                   600 # DRAM write latency (default 100)
-dram_dual_bus_interface                    1 # dual_bus_interface (default = 0) 
-dram_bnk_indexing_policy                    0 # dram_bnk_indexing_policy (0 = normal indexing, 1 = Xoring with the higher bits) (Default = 0)
-dram_bnkgrp_indexing_policy                    1 # dram_bnkgrp_indexing_policy (0 = take higher bits, 1 = take lower bits) (Default = 0)
-dram_seperate_write_queue_enable                    0 # Seperate_Write_Queue_Enable
-dram_write_queue_size             32:28:16 # Write_Queue_Size
-dram_elimnate_rw_turnaround                    0 # elimnate_rw_turnaround i.e set tWTR and tRTW = 0
-icnt_flit_size                        40 # icnt_flit_size
-gpgpu_mem_addr_mapping dramid@8;00000000.00000000.00000000.00000000.0000RRRR.RRRRRRRR.RBBBCCCB.CCCSSSSS # mapping memory address to dram model {dramid@<start bit>;<memory address map>}
-gpgpu_mem_addr_test                    0 # run sweep test to check address mapping for aliased address
-gpgpu_mem_address_mask                    1 # 0 = old addressing mask, 1 = new addressing mask, 2 = new add. mask + flipped bank sel and chip sel bits
-gpgpu_memory_partition_indexing                    0 # 0 = no indexing, 1 = bitwise xoring, 2 = IPoly, 3 = custom indexing
-gpuwattch_xml_file         gpuwattch.xml # GPUWattch XML file
-power_simulation_enabled                    0 # Turn on power simulator (1=On, 0=Off)
-power_per_cycle_dump                    0 # Dump detailed power output each cycle
-power_trace_enabled                    0 # produce a file for the power trace (1=On, 0=Off)
-power_trace_zlevel                     6 # Compression level of the power trace output log (0=no comp, 9=highest)
-steady_power_levels_enabled                    0 # produce a file for the steady power levels (1=On, 0=Off)
-steady_state_definition                  8:4 # allowed deviation:number of samples
-gpgpu_max_cycle                        0 # terminates gpu simulation early (0 = no limit)
-gpgpu_max_insn                         0 # terminates gpu simulation early (0 = no limit)
-gpgpu_max_cta                          0 # terminates gpu simulation early (0 = no limit)
-gpgpu_max_completed_cta                 1000 # terminates gpu simulation early (0 = no limit)
-gpgpu_runtime_stat                   500 # display runtime statistics such as dram utilization {<freq>:<flag>}
-liveness_message_freq                    1 # Minimum number of seconds between simulation liveness messages (0 = always print)
-gpgpu_compute_capability_major                    7 # Major compute capability version number
-gpgpu_compute_capability_minor                    0 # Minor compute capability version number
-gpgpu_flush_l1_cache                    1 # Flush L1 cache at the end of each kernel call
-gpgpu_flush_l2_cache                    0 # Flush L2 cache at the end of each kernel call
-gpgpu_deadlock_detect                    1 # Stop the simulation at deadlock (1=on (default), 0=off)
-gpgpu_ptx_instruction_classification                    0 # if enabled will classify ptx instruction types per kernel (Max 255 kernels now)
-gpgpu_ptx_sim_mode                     0 # Select between Performance (default) or Functional simulation (1)
-gpgpu_clock_domains 1132.0:1132.0:1132.0:850.0 # Clock Domain Frequencies in MhZ {<Core Clock>:<ICNT Clock>:<L2 Clock>:<DRAM Clock>}
-gpgpu_max_concurrent_kernel                    8 # maximum kernels that can run concurrently on GPU
-gpgpu_cflog_interval                    0 # Interval between each snapshot in control flow logger
-visualizer_enabled               200f3ff8827e85c83ff3eefb99f59c8c  /home/pli11/Videos/parboil_benchmark/parboil/benchmarks/lbm/build/nvm_default/lbm
Extracting PTX file and ptxas options    1: lbm.1.sm_70.ptx -arch=sm_70
Extracting PTX file and ptxas options    2: lbm.2.sm_70.ptx -arch=sm_70
      0 # Turn on visualizer output (1=On, 0=Off)
-visualizer_outputfile                 NULL # Specifies the output log file for visualizer
-visualizer_zlevel                      6 # Compression level of the visualizer output log (0=no comp, 9=highest)
-gpgpu_stack_size_limit                 1024 # GPU thread stack size
-gpgpu_heap_size_limit              8388608 # GPU malloc heap size 
-gpgpu_runtime_sync_depth_limit                    2 # GPU device runtime synchronize depth
-gpgpu_runtime_pending_launch_count_limit                 2048 # GPU device runtime pending launch count
-trace_enabled                          0 # Turn on traces
-trace_components                    none # comma seperated list of traces to enable. Complete list found in trace_streams.tup. Default none
-trace_sampling_core                    0 # The core which is printed using CORE_DPRINTF. Default 0
-trace_sampling_memory_partition                   -1 # The memory partition which is printed using MEMPART_DPRINTF. Default -1 (i.e. all)
-enable_ptx_file_line_stats                    1 # Turn on PTX source line statistic profiling. (1 = On)
-ptx_line_stats_filename gpgpu_inst_stats.txt # Output file for PTX source line statistics.
-gpgpu_kernel_launch_latency                 5000 # Kernel launch latency in cycles. Default: 0
-gpgpu_cdp_enabled                      0 # Turn on CDP
-gpgpu_TB_launch_latency                    0 # thread block launch latency in cycles. Default: 0
DRAM Timing Options:
nbk                                    16 # number of banks
CCD                                     1 # column to column delay
RRD                                     3 # minimal delay between activation of rows in different banks
RCD                                    12 # row to column delay
RAS                                    28 # time needed to activate row
RP                                     12 # time needed to precharge (deactivate) row
RC                                     40 # row cycle time
CDLR                                    3 # switching from write to read (changes tWTR)
WR                                     10 # last data-in to row precharge
CL                                     12 # CAS latency
WL                                      2 # Write latency
nbkgrp                                  4 # number of bank groups
CCDL                                    2 # column to column delay between accesses to different bank groups
RTPL                                    3 # read to precharge delay between accesses to different bank groups
Total number of memory sub partition = 64
addr_dec_mask[CHIP]  = 0000000000001f00 	high:13 low:8
addr_dec_mask[BK]    = 00000000000e2000 	high:20 low:13
addr_dec_mask[ROW]   = 00000001fff00000 	high:33 low:20
addr_dec_mask[COL]   = 000000000001c0ff 	high:17 low:0
addr_dec_mask[BURST] = 000000000000001f 	high:5 low:0
sub_partition_id_mask = 0000000000002000
GPGPU-Sim uArch: clock freqs: 1132000000.000000:1132000000.000000:1132000000.000000:850000000.000000
GPGPU-Sim uArch: clock periods: 0.00000000088339222615:0.00000000088339222615:0.00000000088339222615:0.00000000117647058824
*** Initializing Memory Statistics ***
GPGPU-Sim uArch: performance model initialization complete.
self exe links to: /home/pli11/Videos/parboil_benchmark/parboil/benchmarks/lbm/build/nvm_default/lbm
self exe links to: /home/pli11/Videos/parboil_benchmark/parboil/benchmarks/lbm/build/nvm_default/lbm
10.1
GPGPU-Sim PTX: __cudaRegisterFatBinary, fat_cubin_handle = 1, filename=default
self exe links to: /home/pli11/Videos/parboil_benchmark/parboil/benchmarks/lbm/build/nvm_default/lbm
Running md5sum using "md5sum /home/pli11/Videos/parboil_benchmark/parboil/benchmarks/lbm/build/nvm_default/lbm "
self exe links to: /home/pli11/Videos/parboil_benchmark/parboil/benchmarks/lbm/build/nvm_default/lbm
Extracting specific PTX file named lbm.1.sm_70.ptx 
Extracting specific PTX file named lbm.2.sm_70.ptx 
self exe links to: /home/pli11/Videos/parboil_benchmark/parboil/benchmarks/lbm/build/nvm_default/lbm
self exe links to: /home/pli11/Videos/parboil_benchmark/parboil/benchmarks/lbm/build/nvm_default/lbm
10.1
GPGPU-Sim PTX: __cudaRegisterFatBinary, fat_cubin_handle = 2, filename=default
GPGPU-Sim PTX: __cudaRegisterFunction _Z32performStreamCollide_kernel_nvm2PfS_ : hostFun 0x0x405bab, fat_cubin_handle = 2
GPGPU-Sim PTX: Parsing lbm.1.sm_70.ptx
GPGPU-Sim PTX: finished parsing EMBEDDED .ptx file lbm.1.sm_70.ptx
GPGPU-Sim PTX: Parsing lbm.2.sm_70.ptx
GPGPU-Sim PTX: allocating global region for "NVM_log" from 0x100 to 0x4000100 (global memory space)
GPGPU-Sim PTX: allocating global region for "NVM_flag" from 0x4000100 to 0x4400100 (global memory space)
GPGPU-Sim PTX: instruction assembly for function '_Z32performStreamCollide_kernel_nvmgPfS_'...   done.
GPGPU-Sim PTX: instruction assembly for function '_Z32performStreamCollide_kernel_nvmiPfS_'...   done.
GPGPU-Sim PTX: instruction assembly for function '_Z32performStreamCollide_kernel_nvm3PfS_'...   done.
GPGPU-Sim PTX: instruction assembly for function '_Z32performStreamCollide_kernel_nvm4PfS_'...   done.
GPGPU-Sim PTX: instruction assembly for function '_Z32performStreamCollide_kernel_nvm5PfS_'...   done.
GPGPU-Sim PTX: instruction assembly for function '_Z32performStreamCollide_kernel_nvm6PfS_'...   done.
GPGPU-Sim PTX: instruction assembly for function '_Z27performStreamCollide_kernelPfS_'...   done.
GPGPU-Sim PTX: instruction assembly for function '_Z32performStreamCollide_kernel_nvmoPfS_'...   done.
GPGPU-Sim PTX: instruction assembly for function '_Z32performStreamCollide_kernel_nvmwPfS_'...   done.
GPGPU-Sim PTX: instruction assembly for function '_Z32performStreamCollide_kernel_nvmqPfS_'...   done.
GPGPU-Sim PTX: instruction assembly for function '_Z32performStreamCollide_kernel_nvmuPfS_'...   done.
GPGPU-Sim PTX: instruction assembly for function '_Z32performStreamCollide_kernel_nvmbPfS_'...   done.
GPGPU-Sim PTX: instruction assembly for function '_Z32performStreamCollide_kernel_nvmjPfS_'...   done.
GPGPU-Sim PTX: instruction assembly for function '_Z32performStreamCollide_kernel_nvmdPfS_'...   done.
GPGPU-Sim PTX: instruction assembly for function '_Z32performStreamCollide_kernel_nvmlPfS_'...   done.
GPGPU-Sim PTX: instruction assembly for function '_Z32performStreamCollide_kernel_nvm1PfS_'...   done.
GPGPU-Sim PTX: instruction assembly for function '_Z32performStreamCollide_kernel_nvm2PfS_'...   done.
GPGPU-Sim PTX: finished parsing EMBEDDED .ptx file lbm.2.sm_70.ptx
GPGPU-Sim PTX: loading globals with explicit initializers... 
GPGPU-Sim PTX: finished loading globals (0 bytes total).
GPGPU-Sim PTX: loading constants with explicit initializers...  done.
GPGPU-Sim PTX: Loading PTXInfo from lbm.1.sm_70.ptx
GPGPU-Sim PTX: Loading PTXInfo from lbm.2.sm_70.ptx
GPGPU-Sim PTX: Kernel '_Z32performStreamCollide_kernel_nvm2PfS_' : regs=44, lmem=0, smem=0, cmem=368
GPGPU-Sim PTX: Kernel '_Z32performStreamCollide_kernel_nvm1PfS_' : regs=44, lmem=0, smem=0, cmem=368
GPGPU-Sim PTX: Kernel '_Z32performStreamCollide_kernel_nvmlPfS_' : regs=40, lmem=0, smem=0, cmem=368
GPGPU-Sim PTX: Kernel '_Z32performStreamCollide_kernel_nvmdPfS_' : regs=40, lmem=0, smem=0, cmem=368
GPGPU-Sim PTX: Kernel '_Z32performStreamCollide_kernel_nvmjPfS_' : regs=40, lmem=0, smem=0, cmem=368
GPGPU-Sim PTX: Kernel '_Z32performStreamCollide_kernel_nvmbPfS_' : regs=40, lmem=0, smem=0, cmem=368
GPGPU-Sim PTX: Kernel '_Z32performStreamCollide_kernel_nvmuPfS_' : regs=40, lmem=0, smem=0, cmem=368
GPGPU-Sim PTX: Kernel '_Z32performStreamCollide_kernel_nvmqPfS_' : regs=40, lmem=0, smem=0, cmem=368
GPGPU-Sim PTX: Kernel '_Z32performStreamCollide_kernel_nvmwPfS_' : regs=40, lmem=0, smem=0, cmem=368
GPGPU-Sim PTX: Kernel '_Z32performStreamCollide_kernel_nvmoPfS_' : regs=40, lmem=0, smem=0, cmem=368
GPGPU-Sim PTX: Kernel '_Z27performStreamCollide_kernelPfS_' : regs=40, lmem=0, smem=0, cmem=368
GPGPU-Sim PTX: Kernel '_Z32performStreamCollide_kernel_nvm6PfS_' : regs=44, lmem=0, smem=0, cmem=368
GPGPU-Sim PTX: Kernel '_Z32performStreamCollide_kernel_nvm5PfS_' : regs=44, lmem=0, smem=0, cmem=368
GPGPU-Sim PTX: Kernel '_Z32performStreamCollide_kernel_nvm4PfS_' : regs=56, lmem=0, smem=0, cmem=368
GPGPU-Sim PTX: Kernel '_Z32performStreamCollide_kernel_nvm3PfS_' : regs=56, lmem=0, smem=0, cmem=368
GPGPU-Sim PTX: Kernel '_Z32performStreamCollide_kernel_nvmiPfS_' : regs=48, lmem=0, smem=0, cmem=368
GPGPU-Sim PTX: Kernel '_Z32performStreamCollide_kernel_nvmgPfS_' : regs=48, lmem=0, smem=0, cmem=368
GPGPU-Sim PTX: __cudaRegisterFunction _Z32performStreamCollide_kernel_nvm1PfS_ : hostFun 0x0x405a6b, fat_cubin_handle = 2
GPGPU-Sim PTX: __cudaRegisterFunction _Z32performStreamCollide_kernel_nvmlPfS_ : hostFun 0x0x40592b, fat_cubin_handle = 2
GPGPU-Sim PTX: __cudaRegisterFunction _Z32performStreamCollide_kernel_nvmdPfS_ : hostFun 0x0x4057eb, fat_cubin_handle = 2
GPGPU-Sim PTX: __cudaRegisterFunction _Z32performStreamCollide_kernel_nvmjPfS_ : hostFun 0x0x4056ab, fat_cubin_handle = 2
GPGPU-Sim PTX: __cudaRegisterFunction _Z32performStreamCollide_kernel_nvmbPfS_ : hostFun 0x0x40556b, fat_cubin_handle = 2
GPGPU-Sim PTX: __cudaRegisterFunction _Z32performStreamCollide_kernel_nvmuPfS_ : hostFun 0x0x40542b, fat_cubin_handle = 2
GPGPU-Sim PTX: __cudaRegisterFunction _Z32performStreamCollide_kernel_nvmqPfS_ : hostFun 0x0x4052eb, fat_cubin_handle = 2
GPGPU-Sim PTX: __cudaRegisterFunction _Z32performStreamCollide_kernel_nvmwPfS_ : hostFun 0x0x4051ab, fat_cubin_handle = 2
GPGPU-Sim PTX: __cudaRegisterFunction _Z32performStreamCollide_kernel_nvmoPfS_ : hostFun 0x0x40506b, fat_cubin_handle = 2
GPGPU-Sim PTX: __cudaRegisterFunction _Z27performStreamCollide_kernelPfS_ : hostFun 0x0x404f2b, fat_cubin_handle = 2
GPGPU-Sim PTX: __cudaRegisterFunction _Z32performStreamCollide_kernel_nvm6PfS_ : hostFun 0x0x404deb, fat_cubin_handle = 2
GPGPU-Sim PTX: __cudaRegisterFunction _Z32performStreamCollide_kernel_nvm5PfS_ : hostFun 0x0x404cab, fat_cubin_handle = 2
GPGPU-Sim PTX: __cudaRegisterFunction _Z32performStreamCollide_kernel_nvm4PfS_ : hostFun 0x0x404b6b, fat_cubin_handle = 2
GPGPU-Sim PTX: __cudaRegisterFunction _Z32performStreamCollide_kernel_nvm3PfS_ : hostFun 0x0x404a2b, fat_cubin_handle = 2
GPGPU-Sim PTX: __cudaRegisterFunction _Z32performStreamCollide_kernel_nvmiPfS_ : hostFun 0x0x4048eb, fat_cubin_handle = 2
GPGPU-Sim PTX: __cudaRegisterFunction _Z32performStreamCollide_kernel_nvmgPfS_ : hostFun 0x0x4047ab, fat_cubin_handle = 2
GPGPU-Sim PTX: __cudaRegisterVar: hostVar = 0x60f380; deviceAddress = NVM_log; deviceName = NVM_log
GPGPU-Sim PTX: __cudaRegisterVar: Registering const memory space of 67108864 bytes
GPGPU-Sim PTX registering global NVM_log hostVar to name mapping
GPGPU-Sim PTX: __cudaRegisterVar: hostVar = 0x460f380; deviceAddress = NVM_flag; deviceName = NVM_flag
GPGPU-Sim PTX: __cudaRegisterVar: Registering const memory space of 4194304 bytes
GPGPU-Sim PTX registering global NVM_flag hostVar to name mapping
LBM_allocateGrid: allocated 185.2 MByte
MAIN_printInfo:
	grid size      : 120 x 120 x 150 = 2.16 * 10^6 Cells
	nTimeSteps     : 3000
	result file    : /home/pli11/Videos/parboil_benchmark/parboil/benchmarks/lbm/run/long/reference.dat
	action         : store
	simulation type: lid-driven cavity
	obstacle file  : /home/pli11/Videos/parboil_benchmark/parboil/datasets/lbm/long/input/120_120_150_ldc.of

LBM_allocateGrid: allocated 185.2 MByte
LBM_allocateGrid: allocated 185.2 MByte
LBM_showGridStatistics:
	nObstacleCells:  343321 nAccelCells:   26912 nFluidCells: 1789767
	minRho:   1.0000 maxRho:   1.0000 mass: 2.160000e+06
	minU: 0.000000e+00 maxU: 0.000000e+00

event update
GPGPU-Sim: synchronize waiting for inactive GPU simulation
GPGPU-Sim API: Stream Manager State
GPGPU-Sim: detected inactive GPU simulation thread
GPGPU-Sim PTX: Setting up arguments for 8 bytes starting at 0x7ffe032a9748..
GPGPU-Sim PTX: Setting up arguments for 8 bytes starting at 0x7ffe032a9740..

GPGPU-Sim PTX: cudaLaunch for 0x0x40506b (mode=performance simulation) on stream 0
GPGPU-Sim PTX: finding reconvergence points for '_Z32performStreamCollide_kernel_nvmoPfS_'...
GPGPU-Sim PTX: Finding dominators for '_Z32performStreamCollide_kernel_nvmoPfS_'...
GPGPU-Sim PTX: Finding immediate dominators for '_Z32performStreamCollide_kernel_nvmoPfS_'...
GPGPU-Sim PTX: Finding postdominators for '_Z32performStreamCollide_kernel_nvmoPfS_'...
GPGPU-Sim PTX: Finding immediate postdominators for '_Z32performStreamCollide_kernel_nvmoPfS_'...
GPGPU-Sim PTX: pre-decoding instructions for '_Z32performStreamCollide_kernel_nvmoPfS_'...
GPGPU-Sim PTX: reconvergence points for _Z32performStreamCollide_kernel_nvmoPfS_...
GPGPU-Sim PTX:  1 (potential) branch divergence @  PC=0x4d18 (lbm.2.sm_70.ptx:3204) @%p1 bra BB7_1;
GPGPU-Sim PTX:    immediate post dominator      @  PC=0x52b0 (lbm.2.sm_70.ptx:3389) cvta.to.global.u64 %rd25, %rd1;
GPGPU-Sim PTX:  2 (potential) branch divergence @  PC=0x4d20 (lbm.2.sm_70.ptx:3205) bra.uni BB7_2;
GPGPU-Sim PTX:    immediate post dominator      @  PC=0x4d78 (lbm.2.sm_70.ptx:3220) add.f32 %f58, %f219, %f217;
GPGPU-Sim PTX:  3 (potential) branch divergence @  PC=0x4d70 (lbm.2.sm_70.ptx:3217) bra.uni BB7_3;
GPGPU-Sim PTX:    immediate post dominator      @  PC=0x52b0 (lbm.2.sm_70.ptx:3389) cvta.to.global.u64 %rd25, %rd1;
GPGPU-Sim PTX: ... end of reconvergence points for _Z32performStreamCollide_kernel_nvmoPfS_
GPGPU-Sim PTX: ... done pre-decoding instructions for '_Z32performStreamCollide_kernel_nvmoPfS_'.
GPGPU-Sim PTX: pushing kernel '_Z32performStreamCollide_kernel_nvmoPfS_' to stream 0, gridDim= (120,150,1) blockDim = (120,1,1) 
GPGPU-Sim uArch: Shader 0 bind to kernel 1 '_Z32performStreamCollide_kernel_nvmoPfS_'
GPGPU-Sim uArch: CTA/core = 12, limited by: regs
GPGPU-Sim: Reconfigure L1 cache to 128KB
GPGPU-Sim uArch: Shader 1 bind to kernel 1 '_Z32performStreamCollide_kernel_nvmoPfS_'
GPGPU-Sim uArch: Shader 2 bind to kernel 1 '_Z32performStreamCollide_kernel_nvmoPfS_'
GPGPU-Sim uArch: Shader 3 bind to kernel 1 '_Z32performStreamCollide_kernel_nvmoPfS_'
GPGPU-Sim uArch: Shader 4 bind to kernel 1 '_Z32performStreamCollide_kernel_nvmoPfS_'
GPGPU-Sim uArch: Shader 5 bind to kernel 1 '_Z32performStreamCollide_kernel_nvmoPfS_'
GPGPU-Sim uArch: Shader 6 bind to kernel 1 '_Z32performStreamCollide_kernel_nvmoPfS_'
GPGPU-Sim uArch: Shader 7 bind to kernel 1 '_Z32performStreamCollide_kernel_nvmoPfS_'
GPGPU-Sim uArch: Shader 8 bind to kernel 1 '_Z32performStreamCollide_kernel_nvmoPfS_'
GPGPU-Sim uArch: Shader 9 bind to kernel 1 '_Z32performStreamCollide_kernel_nvmoPfS_'
GPGPU-Sim uArch: Shader 10 bind to kernel 1 '_Z32performStreamCollide_kernel_nvmoPfS_'
GPGPU-Sim uArch: Shader 11 bind to kernel 1 '_Z32performStreamCollide_kernel_nvmoPfS_'
GPGPU-Sim uArch: Shader 12 bind to kernel 1 '_Z32performStreamCollide_kernel_nvmoPfS_'
GPGPU-Sim uArch: Shader 13 bind to kernel 1 '_Z32performStreamCollide_kernel_nvmoPfS_'
GPGPU-Sim uArch: Shader 14 bind to kernel 1 '_Z32performStreamCollide_kernel_nvmoPfS_'
GPGPU-Sim uArch: Shader 15 bind to kernel 1 '_Z32performStreamCollide_kernel_nvmoPfS_'
GPGPU-Sim uArch: Shader 16 bind to kernel 1 '_Z32performStreamCollide_kernel_nvmoPfS_'
GPGPU-Sim uArch: Shader 17 bind to kernel 1 '_Z32performStreamCollide_kernel_nvmoPfS_'
GPGPU-Sim uArch: Shader 18 bind to kernel 1 '_Z32performStreamCollide_kernel_nvmoPfS_'
GPGPU-Sim uArch: Shader 19 bind to kernel 1 '_Z32performStreamCollide_kernel_nvmoPfS_'
GPGPU-Sim uArch: Shader 20 bind to kernel 1 '_Z32performStreamCollide_kernel_nvmoPfS_'
GPGPU-Sim uArch: Shader 21 bind to kernel 1 '_Z32performStreamCollide_kernel_nvmoPfS_'
GPGPU-Sim uArch: Shader 22 bind to kernel 1 '_Z32performStreamCollide_kernel_nvmoPfS_'
GPGPU-Sim uArch: Shader 23 bind to kernel 1 '_Z32performStreamCollide_kernel_nvmoPfS_'
GPGPU-Sim uArch: Shader 24 bind to kernel 1 '_Z32performStreamCollide_kernel_nvmoPfS_'
GPGPU-Sim uArch: Shader 25 bind to kernel 1 '_Z32performStreamCollide_kernel_nvmoPfS_'
GPGPU-Sim uArch: Shader 26 bind to kernel 1 '_Z32performStreamCollide_kernel_nvmoPfS_'
GPGPU-Sim uArch: Shader 27 bind to kernel 1 '_Z32performStreamCollide_kernel_nvmoPfS_'
GPGPU-Sim uArch: Shader 28 bind to kernel 1 '_Z32performStreamCollide_kernel_nvmoPfS_'
GPGPU-Sim uArch: Shader 29 bind to kernel 1 '_Z32performStreamCollide_kernel_nvmoPfS_'
GPGPU-Sim uArch: Shader 30 bind to kernel 1 '_Z32performStreamCollide_kernel_nvmoPfS_'
GPGPU-Sim uArch: Shader 31 bind to kernel 1 '_Z32performStreamCollide_kernel_nvmoPfS_'
GPGPU-Sim uArch: Shader 32 bind to kernel 1 '_Z32performStreamCollide_kernel_nvmoPfS_'
GPGPU-Sim uArch: Shader 33 bind to kernel 1 '_Z32performStreamCollide_kernel_nvmoPfS_'
GPGPU-Sim uArch: Shader 34 bind to kernel 1 '_Z32performStreamCollide_kernel_nvmoPfS_'
GPGPU-Sim uArch: Shader 35 bind to kernel 1 '_Z32performStreamCollide_kernel_nvmoPfS_'
GPGPU-Sim uArch: Shader 36 bind to kernel 1 '_Z32performStreamCollide_kernel_nvmoPfS_'
GPGPU-Sim uArch: Shader 37 bind to kernel 1 '_Z32performStreamCollide_kernel_nvmoPfS_'
GPGPU-Sim uArch: Shader 38 bind to kernel 1 '_Z32performStreamCollide_kernel_nvmoPfS_'
GPGPU-Sim uArch: Shader 39 bind to kernel 1 '_Z32performStreamCollide_kernel_nvmoPfS_'
GPGPU-Sim uArch: Shader 40 bind to kernel 1 '_Z32performStreamCollide_kernel_nvmoPfS_'
GPGPU-Sim uArch: Shader 41 bind to kernel 1 '_Z32performStreamCollide_kernel_nvmoPfS_'
GPGPU-Sim uArch: Shader 42 bind to kernel 1 '_Z32performStreamCollide_kernel_nvmoPfS_'
GPGPU-Sim uArch: Shader 43 bind to kernel 1 '_Z32performStreamCollide_kernel_nvmoPfS_'
GPGPU-Sim uArch: Shader 44 bind to kernel 1 '_Z32performStreamCollide_kernel_nvmoPfS_'
GPGPU-Sim uArch: Shader 45 bind to kernel 1 '_Z32performStreamCollide_kernel_nvmoPfS_'
GPGPU-Sim uArch: Shader 46 bind to kernel 1 '_Z32performStreamCollide_kernel_nvmoPfS_'
GPGPU-Sim uArch: Shader 47 bind to kernel 1 '_Z32performStreamCollide_kernel_nvmoPfS_'
GPGPU-Sim uArch: Shader 48 bind to kernel 1 '_Z32performStreamCollide_kernel_nvmoPfS_'
GPGPU-Sim uArch: Shader 49 bind to kernel 1 '_Z32performStreamCollide_kernel_nvmoPfS_'
GPGPU-Sim uArch: Shader 50 bind to kernel 1 '_Z32performStreamCollide_kernel_nvmoPfS_'
GPGPU-Sim uArch: Shader 51 bind to kernel 1 '_Z32performStreamCollide_kernel_nvmoPfS_'
GPGPU-Sim uArch: Shader 52 bind to kernel 1 '_Z32performStreamCollide_kernel_nvmoPfS_'
GPGPU-Sim uArch: Shader 53 bind to kernel 1 '_Z32performStreamCollide_kernel_nvmoPfS_'
GPGPU-Sim uArch: Shader 54 bind to kernel 1 '_Z32performStreamCollide_kernel_nvmoPfS_'
GPGPU-Sim uArch: Shader 55 bind to kernel 1 '_Z32performStreamCollide_kernel_nvmoPfS_'
GPGPU-Sim uArch: Shader 56 bind to kernel 1 '_Z32performStreamCollide_kernel_nvmoPfS_'
GPGPU-Sim uArch: Shader 57 bind to kernel 1 '_Z32performStreamCollide_kernel_nvmoPfS_'
GPGPU-Sim uArch: Shader 58 bind to kernel 1 '_Z32performStreamCollide_kernel_nvmoPfS_'
GPGPU-Sim uArch: Shader 59 bind to kernel 1 '_Z32performStreamCollide_kernel_nvmoPfS_'
GPGPU-Sim uArch: Shader 60 bind to kernel 1 '_Z32performStreamCollide_kernel_nvmoPfS_'
GPGPU-Sim uArch: Shader 61 bind to kernel 1 '_Z32performStreamCollide_kernel_nvmoPfS_'
GPGPU-Sim uArch: Shader 62 bind to kernel 1 '_Z32performStreamCollide_kernel_nvmoPfS_'
GPGPU-Sim uArch: Shader 63 bind to kernel 1 '_Z32performStreamCollide_kernel_nvmoPfS_'
GPGPU-Sim uArch: Shader 64 bind to kernel 1 '_Z32performStreamCollide_kernel_nvmoPfS_'
GPGPU-Sim uArch: Shader 65 bind to kernel 1 '_Z32performStreamCollide_kernel_nvmoPfS_'
GPGPU-Sim uArch: Shader 66 bind to kernel 1 '_Z32performStreamCollide_kernel_nvmoPfS_'
GPGPU-Sim uArch: Shader 67 bind to kernel 1 '_Z32performStreamCollide_kernel_nvmoPfS_'
GPGPU-Sim uArch: Shader 68 bind to kernel 1 '_Z32performStreamCollide_kernel_nvmoPfS_'
GPGPU-Sim uArch: Shader 69 bind to kernel 1 '_Z32performStreamCollide_kernel_nvmoPfS_'
GPGPU-Sim uArch: Shader 70 bind to kernel 1 '_Z32performStreamCollide_kernel_nvmoPfS_'
GPGPU-Sim uArch: Shader 71 bind to kernel 1 '_Z32performStreamCollide_kernel_nvmoPfS_'
GPGPU-Sim uArch: Shader 72 bind to kernel 1 '_Z32performStreamCollide_kernel_nvmoPfS_'
GPGPU-Sim uArch: Shader 73 bind to kernel 1 '_Z32performStreamCollide_kernel_nvmoPfS_'
GPGPU-Sim uArch: Shader 74 bind to kernel 1 '_Z32performStreamCollide_kernel_nvmoPfS_'
GPGPU-Sim uArch: Shader 75 bind to kernel 1 '_Z32performStreamCollide_kernel_nvmoPfS_'
GPGPU-Sim uArch: Shader 76 bind to kernel 1 '_Z32performStreamCollide_kernel_nvmoPfS_'
GPGPU-Sim uArch: Shader 77 bind to kernel 1 '_Z32performStreamCollide_kernel_nvmoPfS_'
GPGPU-Sim uArch: Shader 78 bind to kernel 1 '_Z32performStreamCollide_kernel_nvmoPfS_'
GPGPU-Sim uArch: Shader 79 bind to kernel 1 '_Z32performStreamCollide_kernel_nvmoPfS_'
kernel_name = _Z32performStreamCollide_kernel_nvmoPfS_ 
kernel_launch_uid = 1 
gpu_sim_cycle = 102764
gpu_sim_insn = 69603102
gpu_ipc =     677.3102
gpu_tot_sim_cycle = 102764
gpu_tot_sim_insn = 69603102
gpu_tot_ipc =     677.3102
gpu_tot_issued_cta = 1960
gpu_occupancy = 68.3844% 
gpu_tot_occupancy = 68.3844% 
max_total_param_size = 0
gpu_stall_dramfull = 3522319
gpu_stall_icnt2sh    = 0
partiton_level_parallism =      16.2766
partiton_level_parallism_total  =      16.2766
partiton_level_parallism_util =      18.0972
partiton_level_parallism_util_total  =      18.0972
L2_BW  =     586.0594 GB/Sec
L2_BW_total  =     586.0594 GB/Sec
gpu_total_sim_rate=94313
############## bottleneck_stats #############
cycles: core 102764, icnt 102764, l2 102764, dram 77164
gpu_ipc	677.310
gpu_tot_issued_cta = 1960, average cycles = 52
n_dram_writes	 0, n_dram_reads	 0
n_GLOBAL_ACC_R	 581134 
n_LOCAL_ACC_R	 0 
n_CONST_ACC_R	 0 
n_TEXTURE_ACC_R	 0 
n_GLOBAL_ACC_W	 0 
n_LOCAL_ACC_W	 0 
n_L1_WRBK_ACC	 0 
n_L2_WRBK_ACC	 504012 
n_L1_WR_ALLOC_R	 0 
n_L2_WR_ALLOC_R	 0 

n_sm	 80, n_schedulers	 4
scheduler util	0.073	80
L1D data util	0.555	80	0.640	17
L1D tag util	0.328	80	0.428	69
L2 data util	0.500	64	0.516	56
L2 tag util	0.280	64	0.331	5
n_l2_access	 1839406
icnt s2m util	0.000	0	0.000	5	flits per packet: -nan
icnt m2s util	0.000	0	0.000	5	flits per packet: -nan
sum=0
n_mem	 32
dram util	0.695	32	0.726	22

latency_l2_hit:	705849517, num_l2_reqs:	424028
L2 hit latency:	1664
latency_dram:	-463438012, num_dram_reqs:	1238498
DRAM latency:	3093

n_reg	65536, n_smem	98304, n_thread	2048, n_tb	32
reg file	0.938
smem size	0.000
thread slot	0.750
TB slot    	0.375
L1I tag util	0.147	80	0.161	17

n_mem_pipe	1, n_sp_pipe	4, n_sfu_pipe	4
mem pipe util	0.068	80	0.078	17
sp pipe util	0.051	80	0.054	61
sfu pipe util	0.003	80	0.003	17
ldst mem cycle	0.067	80	0.076	22

smem port	0.000	0

n_reg_bank	16
reg port	0.042	16	0.054	11
L1D tag util	0.328	80	0.428	69
L1D fill util	0.071	80	0.082	17
n_l1d_mshr	4096
L1D mshr util	0.078	80
n_l1d_missq	16
L1D missq util	0.229	80
L1D hit rate	0.000
L1D miss rate	0.423
L1D rsfail rate	0.577
L2 tag util	0.280	64	0.331	5
L2 fill util	0.088	64	0.095	1
n_l2_mshr	192
n_l2_missq	32
L2 mshr util	0.411	64	0.465	4
L2 missq util	0.005	64	0.005	20
L2 hit rate	0.231
L2 miss rate	0.674
L2 rsfail rate	0.095

dram activity	0.925	32	0.938	0

load trans eff	1.000
load trans sz	32.000
load_useful_bytes 18789280, load_transaction_bytes 18789280, icnt_m2s_bytes 0
n_gmem_load_insns 156577, n_gmem_load_accesses 587165
n_smem_access_insn 0, n_smem_accesses 0

tmp_counter/12	0.291

run 0.008, fetch 0.001, sync 0.781, control 0.000, data 0.190, struct 0.020
############ end_bottleneck_stats #############

========= Core cache stats =========
L1I_cache:
	L1I_total_cache_accesses = 0
	L1I_total_cache_misses = 0
	L1I_total_cache_pending_hits = 0
	L1I_total_cache_reservation_fails = 0
L1D_cache:
	L1D_cache_core[0]: Access = 13891, Miss = 13891, Miss_rate = 1.000, Pending_hits = 0, Reservation_fails = 17602
	L1D_cache_core[1]: Access = 13730, Miss = 13730, Miss_rate = 1.000, Pending_hits = 0, Reservation_fails = 22421
	L1D_cache_core[2]: Access = 13705, Miss = 13705, Miss_rate = 1.000, Pending_hits = 0, Reservation_fails = 18960
	L1D_cache_core[3]: Access = 14702, Miss = 14702, Miss_rate = 1.000, Pending_hits = 0, Reservation_fails = 18312
	L1D_cache_core[4]: Access = 14453, Miss = 14453, Miss_rate = 1.000, Pending_hits = 0, Reservation_fails = 20596
	L1D_cache_core[5]: Access = 13708, Miss = 13708, Miss_rate = 1.000, Pending_hits = 0, Reservation_fails = 19005
	L1D_cache_core[6]: Access = 14078, Miss = 14078, Miss_rate = 1.000, Pending_hits = 0, Reservation_fails = 15703
	L1D_cache_core[7]: Access = 14469, Miss = 14469, Miss_rate = 1.000, Pending_hits = 0, Reservation_fails = 18008
	L1D_cache_core[8]: Access = 14209, Miss = 14209, Miss_rate = 1.000, Pending_hits = 0, Reservation_fails = 20631
	L1D_cache_core[9]: Access = 14025, Miss = 14025, Miss_rate = 1.000, Pending_hits = 0, Reservation_fails = 18086
	L1D_cache_core[10]: Access = 13546, Miss = 13546, Miss_rate = 1.000, Pending_hits = 0, Reservation_fails = 21786
	L1D_cache_core[11]: Access = 13848, Miss = 13848, Miss_rate = 1.000, Pending_hits = 0, Reservation_fails = 16640
	L1D_cache_core[12]: Access = 13474, Miss = 13474, Miss_rate = 1.000, Pending_hits = 0, Reservation_fails = 23469
	L1D_cache_core[13]: Access = 15403, Miss = 15403, Miss_rate = 1.000, Pending_hits = 0, Reservation_fails = 16991
	L1D_cache_core[14]: Access = 16123, Miss = 16123, Miss_rate = 1.000, Pending_hits = 0, Reservation_fails = 16472
	L1D_cache_core[15]: Access = 14343, Miss = 14343, Miss_rate = 1.000, Pending_hits = 0, Reservation_fails = 20694
	L1D_cache_core[16]: Access = 14505, Miss = 14505, Miss_rate = 1.000, Pending_hits = 0, Reservation_fails = 19675
	L1D_cache_core[17]: Access = 16433, Miss = 16433, Miss_rate = 1.000, Pending_hits = 0, Reservation_fails = 16903
	L1D_cache_core[18]: Access = 14292, Miss = 14292, Miss_rate = 1.000, Pending_hits = 0, Reservation_fails = 13707
	L1D_cache_core[19]: Access = 14653, Miss = 14653, Miss_rate = 1.000, Pending_hits = 0, Reservation_fails = 13341
	L1D_cache_core[20]: Access = 14546, Miss = 14546, Miss_rate = 1.000, Pending_hits = 0, Reservation_fails = 17359
	L1D_cache_core[21]: Access = 15740, Miss = 15740, Miss_rate = 1.000, Pending_hits = 0, Reservation_fails = 16436
	L1D_cache_core[22]: Access = 16182, Miss = 16182, Miss_rate = 1.000, Pending_hits = 0, Reservation_fails = 15426
	L1D_cache_core[23]: Access = 15107, Miss = 15107, Miss_rate = 1.000, Pending_hits = 0, Reservation_fails = 14347
	L1D_cache_core[24]: Access = 15798, Miss = 15798, Miss_rate = 1.000, Pending_hits = 0, Reservation_fails = 13943
	L1D_cache_core[25]: Access = 14460, Miss = 14460, Miss_rate = 1.000, Pending_hits = 0, Reservation_fails = 26121
	L1D_cache_core[26]: Access = 14695, Miss = 14695, Miss_rate = 1.000, Pending_hits = 0, Reservation_fails = 18336
	L1D_cache_core[27]: Access = 14607, Miss = 14607, Miss_rate = 1.000, Pending_hits = 0, Reservation_fails = 18775
	L1D_cache_core[28]: Access = 14591, Miss = 14591, Miss_rate = 1.000, Pending_hits = 0, Reservation_fails = 15500
	L1D_cache_core[29]: Access = 14505, Miss = 14505, Miss_rate = 1.000, Pending_hits = 0, Reservation_fails = 18597
	L1D_cache_core[30]: Access = 14144, Miss = 14144, Miss_rate = 1.000, Pending_hits = 0, Reservation_fails = 15130
	L1D_cache_core[31]: Access = 13707, Miss = 13707, Miss_rate = 1.000, Pending_hits = 0, Reservation_fails = 23172
	L1D_cache_core[32]: Access = 13773, Miss = 13773, Miss_rate = 1.000, Pending_hits = 0, Reservation_fails = 22289
	L1D_cache_core[33]: Access = 12888, Miss = 12888, Miss_rate = 1.000, Pending_hits = 0, Reservation_fails = 22770
	L1D_cache_core[34]: Access = 14019, Miss = 14019, Miss_rate = 1.000, Pending_hits = 0, Reservation_fails = 18804
	L1D_cache_core[35]: Access = 14412, Miss = 14412, Miss_rate = 1.000, Pending_hits = 0, Reservation_fails = 17653
	L1D_cache_core[36]: Access = 14520, Miss = 14520, Miss_rate = 1.000, Pending_hits = 0, Reservation_fails = 15360
	L1D_cache_core[37]: Access = 13776, Miss = 13776, Miss_rate = 1.000, Pending_hits = 0, Reservation_fails = 14664
	L1D_cache_core[38]: Access = 13126, Miss = 13126, Miss_rate = 1.000, Pending_hits = 0, Reservation_fails = 19186
	L1D_cache_core[39]: Access = 13959, Miss = 13959, Miss_rate = 1.000, Pending_hits = 0, Reservation_fails = 23938
	L1D_cache_core[40]: Access = 14761, Miss = 14761, Miss_rate = 1.000, Pending_hits = 0, Reservation_fails = 19006
	L1D_cache_core[41]: Access = 14326, Miss = 14326, Miss_rate = 1.000, Pending_hits = 0, Reservation_fails = 17889
	L1D_cache_core[42]: Access = 13666, Miss = 13666, Miss_rate = 1.000, Pending_hits = 0, Reservation_fails = 23408
	L1D_cache_core[43]: Access = 13943, Miss = 13943, Miss_rate = 1.000, Pending_hits = 0, Reservation_fails = 18032
	L1D_cache_core[44]: Access = 14715, Miss = 14715, Miss_rate = 1.000, Pending_hits = 0, Reservation_fails = 20930
	L1D_cache_core[45]: Access = 14657, Miss = 14657, Miss_rate = 1.000, Pending_hits = 0, Reservation_fails = 24106
	L1D_cache_core[46]: Access = 14410, Miss = 14410, Miss_rate = 1.000, Pending_hits = 0, Reservation_fails = 20152
	L1D_cache_core[47]: Access = 13767, Miss = 13767, Miss_rate = 1.000, Pending_hits = 0, Reservation_fails = 19305
	L1D_cache_core[48]: Access = 13823, Miss = 13823, Miss_rate = 1.000, Pending_hits = 0, Reservation_fails = 16559
	L1D_cache_core[49]: Access = 14183, Miss = 14183, Miss_rate = 1.000, Pending_hits = 0, Reservation_fails = 18909
	L1D_cache_core[50]: Access = 13360, Miss = 13360, Miss_rate = 1.000, Pending_hits = 0, Reservation_fails = 22788
	L1D_cache_core[51]: Access = 13466, Miss = 13466, Miss_rate = 1.000, Pending_hits = 0, Reservation_fails = 26955
	L1D_cache_core[52]: Access = 14355, Miss = 14355, Miss_rate = 1.000, Pending_hits = 0, Reservation_fails = 19782
	L1D_cache_core[53]: Access = 13774, Miss = 13774, Miss_rate = 1.000, Pending_hits = 0, Reservation_fails = 25164
	L1D_cache_core[54]: Access = 15086, Miss = 15086, Miss_rate = 1.000, Pending_hits = 0, Reservation_fails = 14244
	L1D_cache_core[55]: Access = 14866, Miss = 14866, Miss_rate = 1.000, Pending_hits = 0, Reservation_fails = 20543
	L1D_cache_core[56]: Access = 13451, Miss = 13451, Miss_rate = 1.000, Pending_hits = 0, Reservation_fails = 18718
	L1D_cache_core[57]: Access = 13953, Miss = 13953, Miss_rate = 1.000, Pending_hits = 0, Reservation_fails = 17317
	L1D_cache_core[58]: Access = 14112, Miss = 14112, Miss_rate = 1.000, Pending_hits = 0, Reservation_fails = 18828
	L1D_cache_core[59]: Access = 13464, Miss = 13464, Miss_rate = 1.000, Pending_hits = 0, Reservation_fails = 18672
	L1D_cache_core[60]: Access = 14050, Miss = 14050, Miss_rate = 1.000, Pending_hits = 0, Reservation_fails = 18499
	L1D_cache_core[61]: Access = 15701, Miss = 15701, Miss_rate = 1.000, Pending_hits = 0, Reservation_fails = 19842
	L1D_cache_core[62]: Access = 14275, Miss = 14275, Miss_rate = 1.000, Pending_hits = 0, Reservation_fails = 16923
	L1D_cache_core[63]: Access = 14816, Miss = 14816, Miss_rate = 1.000, Pending_hits = 0, Reservation_fails = 16436
	L1D_cache_core[64]: Access = 13826, Miss = 13826, Miss_rate = 1.000, Pending_hits = 0, Reservation_fails = 19997
	L1D_cache_core[65]: Access = 14031, Miss = 14031, Miss_rate = 1.000, Pending_hits = 0, Reservation_fails = 15605
	L1D_cache_core[66]: Access = 15203, Miss = 15203, Miss_rate = 1.000, Pending_hits = 0, Reservation_fails = 17675
	L1D_cache_core[67]: Access = 14509, Miss = 14509, Miss_rate = 1.000, Pending_hits = 0, Reservation_fails = 24910
	L1D_cache_core[68]: Access = 13407, Miss = 13407, Miss_rate = 1.000, Pending_hits = 0, Reservation_fails = 19900
	L1D_cache_core[69]: Access = 13141, Miss = 13141, Miss_rate = 1.000, Pending_hits = 0, Reservation_fails = 30836
	L1D_cache_core[70]: Access = 14472, Miss = 14472, Miss_rate = 1.000, Pending_hits = 0, Reservation_fails = 20179
	L1D_cache_core[71]: Access = 13659, Miss = 13659, Miss_rate = 1.000, Pending_hits = 0, Reservation_fails = 23648
	L1D_cache_core[72]: Access = 14211, Miss = 14211, Miss_rate = 1.000, Pending_hits = 0, Reservation_fails = 18633
	L1D_cache_core[73]: Access = 14164, Miss = 14164, Miss_rate = 1.000, Pending_hits = 0, Reservation_fails = 19043
	L1D_cache_core[74]: Access = 13426, Miss = 13426, Miss_rate = 1.000, Pending_hits = 0, Reservation_fails = 27079
	L1D_cache_core[75]: Access = 13950, Miss = 13950, Miss_rate = 1.000, Pending_hits = 0, Reservation_fails = 17714
	L1D_cache_core[76]: Access = 13652, Miss = 13652, Miss_rate = 1.000, Pending_hits = 0, Reservation_fails = 25778
	L1D_cache_core[77]: Access = 13487, Miss = 13487, Miss_rate = 1.000, Pending_hits = 0, Reservation_fails = 21706
	L1D_cache_core[78]: Access = 14072, Miss = 14072, Miss_rate = 1.000, Pending_hits = 0, Reservation_fails = 17683
	L1D_cache_core[79]: Access = 13479, Miss = 13479, Miss_rate = 1.000, Pending_hits = 0, Reservation_fails = 24372
	L1D_total_cache_accesses = 1139814
	L1D_total_cache_misses = 1139814
	L1D_total_cache_miss_rate = 1.0000
	L1D_total_cache_pending_hits = 0
	L1D_total_cache_reservation_fails = 1554573
	L1D_cache_data_port_util = 0.000
	L1D_cache_fill_port_util = 0.074
L1C_cache:
	L1C_total_cache_accesses = 0
	L1C_total_cache_misses = 0
	L1C_total_cache_pending_hits = 0
	L1C_total_cache_reservation_fails = 0
L1T_cache:
	L1T_total_cache_accesses = 0
	L1T_total_cache_misses = 0
	L1T_total_cache_pending_hits = 0
	L1T_total_cache_reservation_fails = 0

Total_core_cache_stats:
	Total_core_cache_stats_breakdown[GLOBAL_ACC_R][HIT] = 0
	Total_core_cache_stats_breakdown[GLOBAL_ACC_R][HIT_RESERVED] = 0
	Total_core_cache_stats_breakdown[GLOBAL_ACC_R][MISS] = 586831
	Total_core_cache_stats_breakdown[GLOBAL_ACC_R][RESERVATION_FAIL] = 1508270
	Total_core_cache_stats_breakdown[GLOBAL_ACC_R][SECTOR_MISS] = 0
	Total_core_cache_stats_breakdown[LOCAL_ACC_R][HIT] = 0
	Total_core_cache_stats_breakdown[LOCAL_ACC_R][HIT_RESERVED] = 0
	Total_core_cache_stats_breakdown[LOCAL_ACC_R][MISS] = 0
	Total_core_cache_stats_breakdown[LOCAL_ACC_R][RESERVATION_FAIL] = 0
	Total_core_cache_stats_breakdown[LOCAL_ACC_R][SECTOR_MISS] = 0
	Total_core_cache_stats_breakdown[CONST_ACC_R][HIT] = 0
	Total_core_cache_stats_breakdown[CONST_ACC_R][HIT_RESERVED] = 0
	Total_core_cache_stats_breakdown[CONST_ACC_R][MISS] = 0
	Total_core_cache_stats_breakdown[CONST_ACC_R][RESERVATION_FAIL] = 0
	Total_core_cache_stats_breakdown[CONST_ACC_R][SECTOR_MISS] = 0
	Total_core_cache_stats_breakdown[TEXTURE_ACC_R][HIT] = 0
	Total_core_cache_stats_breakdown[TEXTURE_ACC_R][HIT_RESERVED] = 0
	Total_core_cache_stats_breakdown[TEXTURE_ACC_R][MISS] = 0
	Total_core_cache_stats_breakdown[TEXTURE_ACC_R][RESERVATION_FAIL] = 0
	Total_core_cache_stats_breakdown[TEXTURE_ACC_R][SECTOR_MISS] = 0
	Total_core_cache_stats_breakdown[GLOBAL_ACC_W][HIT] = 0
	Total_core_cache_stats_breakdown[GLOBAL_ACC_W][HIT_RESERVED] = 0
	Total_core_cache_stats_breakdown[GLOBAL_ACC_W][MISS] = 552983
	Total_core_cache_stats_breakdown[GLOBAL_ACC_W][RESERVATION_FAIL] = 46303
	Total_core_cache_stats_breakdown[GLOBAL_ACC_W][SECTOR_MISS] = 0
	Total_core_cache_stats_breakdown[LOCAL_ACC_W][HIT] = 0
	Total_core_cache_stats_breakdown[LOCAL_ACC_W][HIT_RESERVED] = 0
	Total_core_cache_stats_breakdown[LOCAL_ACC_W][MISS] = 0
	Total_core_cache_stats_breakdown[LOCAL_ACC_W][RESERVATION_FAIL] = 0
	Total_core_cache_stats_breakdown[LOCAL_ACC_W][SECTOR_MISS] = 0
	Total_core_cache_stats_breakdown[L1_WRBK_ACC][HIT] = 0
	Total_core_cache_stats_breakdown[L1_WRBK_ACC][HIT_RESERVED] = 0
	Total_core_cache_stats_breakdown[L1_WRBK_ACC][MISS] = 0
	Total_core_cache_stats_breakdown[L1_WRBK_ACC][RESERVATION_FAIL] = 0
	Total_core_cache_stats_breakdown[L1_WRBK_ACC][SECTOR_MISS] = 0
	Total_core_cache_stats_breakdown[L2_WRBK_ACC][HIT] = 0
	Total_core_cache_stats_breakdown[L2_WRBK_ACC][HIT_RESERVED] = 0
	Total_core_cache_stats_breakdown[L2_WRBK_ACC][MISS] = 0
	Total_core_cache_stats_breakdown[L2_WRBK_ACC][RESERVATION_FAIL] = 0
	Total_core_cache_stats_breakdown[L2_WRBK_ACC][SECTOR_MISS] = 0
	Total_core_cache_stats_breakdown[INST_ACC_R][HIT] = 0
	Total_core_cache_stats_breakdown[INST_ACC_R][HIT_RESERVED] = 0
	Total_core_cache_stats_breakdown[INST_ACC_R][MISS] = 0
	Total_core_cache_stats_breakdown[INST_ACC_R][RESERVATION_FAIL] = 0
	Total_core_cache_stats_breakdown[INST_ACC_R][SECTOR_MISS] = 0
	Total_core_cache_stats_breakdown[L1_WR_ALLOC_R][HIT] = 0
	Total_core_cache_stats_breakdown[L1_WR_ALLOC_R][HIT_RESERVED] = 0
	Total_core_cache_stats_breakdown[L1_WR_ALLOC_R][MISS] = 0
	Total_core_cache_stats_breakdown[L1_WR_ALLOC_R][RESERVATION_FAIL] = 0
	Total_core_cache_stats_breakdown[L1_WR_ALLOC_R][SECTOR_MISS] = 0
	Total_core_cache_stats_breakdown[L2_WR_ALLOC_R][HIT] = 0
	Total_core_cache_stats_breakdown[L2_WR_ALLOC_R][HIT_RESERVED] = 0
	Total_core_cache_stats_breakdown[L2_WR_ALLOC_R][MISS] = 0
	Total_core_cache_stats_breakdown[L2_WR_ALLOC_R][RESERVATION_FAIL] = 0
	Total_core_cache_stats_breakdown[L2_WR_ALLOC_R][SECTOR_MISS] = 0
	Total_core_cache_stats_breakdown[GLOBAL_ACC_R][TOTAL_ACCESS] = 586831
	Total_core_cache_stats_breakdown[GLOBAL_ACC_W][TOTAL_ACCESS] = 552983

Total_core_cache_fail_stats:
	Total_core_cache_fail_stats_breakdown[GLOBAL_ACC_R][MISS_QUEUE_FULL] = 1508270
	Total_core_cache_fail_stats_breakdown[GLOBAL_ACC_W][MISS_QUEUE_FULL] = 46303
Shader 0 warp_id issue ditsribution:
warp_id:
0, 1, 2, 3, 4, 5, 6, 7, 8, 9, 10, 11, 12, 13, 14, 15, 16, 17, 18, 19, 20, 21, 22, 23, 24, 25, 26, 27, 28, 29, 30, 31, 32, 33, 34, 35, 36, 37, 38, 39, 40, 41, 42, 43, 44, 45, 46, 47, 
distro:
485, 475, 504, 514, 492, 482, 496, 506, 641, 621, 640, 660, 473, 475, 489, 506, 635, 615, 621, 647, 653, 633, 654, 682, 479, 475, 503, 513, 653, 621, 654, 682, 623, 603, 621, 653, 479, 469, 489, 499, 597, 577, 609, 633, 589, 561, 561, 581, 
gpgpu_n_tot_thrd_icount = 76297600
gpgpu_n_tot_w_icount = 2384300
gpgpu_n_stall_shd_mem = 3057951
gpgpu_n_mem_read_local = 0
gpgpu_n_mem_write_local = 0
gpgpu_n_mem_read_global = 586812
gpgpu_n_mem_write_global = 1105882
gpgpu_n_mem_texture = 0
gpgpu_n_mem_const = 0
gpgpu_n_load_insn  = 4695528
gpgpu_n_store_insn = 7792952
gpgpu_n_shmem_insn = 0
gpgpu_n_sstarr_insn = 0
gpgpu_n_tex_insn = 0
gpgpu_n_const_mem_insn = 0
gpgpu_n_param_mem_insn = 470160
gpgpu_n_shmem_bkconflict = 0
gpgpu_n_cache_bkconflict = 0
gpgpu_n_intrawarp_mshr_merge = 0
gpgpu_n_cmem_portconflict = 0
gpgpu_stall_shd_mem[c_mem][resource_stall] = 0
gpgpu_stall_shd_mem[s_mem][bk_conf] = 0
gpgpu_stall_shd_mem[gl_mem][resource_stall] = 2255892
gpgpu_stall_shd_mem[gl_mem][coal_stall] = 422636
gpgpu_stall_shd_mem[gl_mem][data_port_stall] = 0
gpu_reg_bank_conflict_stalls = 0
Warp Occupancy Distribution:
Stall:8417654	W0_Idle:11070474	W0_Scoreboard:9409898	W1:35610	W2:0	W3:0	W4:0	W5:0	W6:0	W7:0	W8:0	W9:0	W10:0	W11:0	W12:0	W13:0	W14:0	W15:0	W16:0	W17:0	W18:0	W19:0	W20:0	W21:0	W22:0	W23:298904	W24:299429	W25:0	W26:0	W27:0	W28:0	W29:0	W30:0	W31:298223	W32:1453968
single_issue_nums: WS0:596119	WS1:579182	WS2:594670	WS3:616163	
dual_issue_nums: WS0:0	WS1:0	WS2:0	WS3:0	
traffic_breakdown_coretomem[GLOBAL_ACC_R] = 4694496 {8:586812,}
traffic_breakdown_coretomem[GLOBAL_ACC_W] = 26542320 {8:552905,40:552977,}
traffic_breakdown_memtocore[GLOBAL_ACC_R] = 23232640 {40:580816,}
traffic_breakdown_memtocore[GLOBAL_ACC_W] = 8653872 {8:1081734,}
maxmflatency = 19077 
max_icnt2mem_latency = 12731 
maxmrqlatency = 12935 
max_icnt2sh_latency = 199 
averagemflatency = 2731 
avg_icnt2mem_latency = 1980 
avg_mrq_latency = 146 
avg_icnt2sh_latency = 3 
mrq_lat_table:48518 	38363 	19856 	29737 	72430 	182666 	251495 	263608 	136116 	38350 	1629 	280 	132 	67 	0 	0 	0 	0 	0 	0 	0 	0 	0 	0 	0 	0 	0 	0 	0 	0 	0 	0 	
dq_lat_table:0 	0 	0 	0 	0 	0 	0 	0 	0 	0 	0 	0 	0 	0 	0 	0 	0 	0 	0 	0 	0 	0 	0 	0 	0 	0 	0 	0 	0 	0 	0 	0 	
mf_lat_table:0 	0 	0 	0 	0 	0 	0 	38482 	56944 	206765 	537050 	419178 	382982 	21089 	41 	0 	0 	0 	0 	0 	0 	0 	0 	0 	0 	0 	0 	0 	0 	0 	0 	0 	
icnt2mem_lat_table:0 	11996 	6424 	5421 	30903 	19037 	29026 	62040 	125866 	306613 	468645 	403311 	197488 	5880 	0 	0 	0 	0 	0 	0 	0 	0 	0 	0 	
icnt2sh_lat_table:0 	1406582 	158627 	58222 	23406 	9398 	4679 	1617 	0 	0 	0 	0 	0 	0 	0 	0 	0 	0 	0 	0 	0 	0 	0 	0 	
mf_lat_pw_table:0 	0 	0 	0 	0 	0 	0 	0 	0 	2 	90 	46 	56 	0 	0 	0 	0 	0 	0 	0 	0 	0 	0 	0 	0 	0 	0 	0 	0 	0 	0 	0 	
maximum concurrent accesses to same row:
dram[0]:        23        24        24        35        24        32        24        40        52        49        40        44        61        42        41        30 
dram[1]:        21        28        18        24        21        20        31        40        28        29        32        36        25        43        24        25 
dram[2]:        20        24        23        23        24        28        48        40        64        52        48        44        48        39        24        40 
dram[3]:        19        18        22        28        21        24        23        21        32        24        32        30        46        26        32        18 
dram[4]:        20        33        23        32        24        27        48        36        60        64        52        58        30        45        22        32 
dram[5]:        27        24        21        24        21        18        37        42        25        24        25        40        36        28        28        19 
dram[6]:        24        20        24        27        24        32        56        40        49        64        48        56        32        46        28        28 
dram[7]:        23        22        23        17        21        21        20        21        32        31        28        34        34        28        38        22 
dram[8]:        28        20        34        29        24        28        48        36        64        64        52        64        44        44        24        36 
dram[9]:        28        32        24        28        21        19        32        24        28        28        23        32        32        40        40        44 
dram[10]:        24        20        39        32        24        28        48        32        63        60        48        72        40        50        32        31 
dram[11]:        28        32        28        24        23        24        21        35        30        28        26        50        32        26        29        47 
dram[12]:        28        24        22        26        24        32        42        32        41        64        48        60        40        41        32        28 
dram[13]:        20        28        24        18        21        23        20        28        25        23        21        37        20        20        36        28 
dram[14]:        27        20        27        23        24        28        36        32        52        60        52        40        40        51        29        27 
dram[15]:        25        20        36        28        24        24        42        29        25        35        25        37        23        32        30        23 
dram[16]:        20        20        24        23        24        32        32        32        40        44        52        51        29        28        29        20 
dram[17]:        22        25        32        21        21        18        17        22        32        31        24        23        21        49        24        38 
dram[18]:        22        32        32        28        26        27        44        64        53        64        54        49        36        48        32        28 
dram[19]:        24        34        16        20        21        22        29        28        39        28        40        50        24        32        32        33 
dram[20]:        16        32        23        33        24        28        56        52        40        64        36        45        32        43        28        36 
dram[21]:        27        21        20        18        21        22        25        28        25        48        27        37        27        25        24        26 
dram[22]:        28        32        21        34        24        32        56        44        64        45        49        49        40        54        39        44 
dram[23]:        20        27        20        20        21        20        27        46        23        38        29        39        27        42        26        19 
dram[24]:        24        29        33        32        24        24        56        34        64        45        52        50        44        40        27        32 
dram[25]:        18        27        28        25        21        20        32        32        29        29        37        33        22        28        22        22 
dram[26]:        22        33        22        23        24        28        60        64        64        64        45        54        48        50        32        28 
dram[27]:        29        22        18        24        21        20        36        39        33        27        32        30        24        31        37        30 
dram[28]:        28        21        23        26        27        28        31        48        44        64        52        56        39        53        24        27 
dram[29]:        24        18        20        24        21        25        28        26        20        35        20        27        24        31        28        27 
dram[30]:        37        24        27        19        32        24        46        48        55        67        54        70        39        33        27        36 
dram[31]:        24        20        28        28        22        32        24        35        28        42        36        32        37        23        22        32 
maximum service time to same row:
dram[0]:     21481     19978     35488     37135     18133     20625     26134     20402     36477     36722      7015      7027     12426     12957     18496     17299 
dram[1]:     18820     17138     33643     35798     15690     20285     24234     23727     35801     37972      6878      6892     11366     12229     16420     15574 
dram[2]:     21631     21151     33461     36141     20447     18582     19919     18555     42170     44314      7015      7091     12426     12957     18485     17299 
dram[3]:     18545     17145     31090     36847     19255     19881     25294     20600     37947     42752      6878      8515     11366     12229     16420     15574 
dram[4]:     21477     19930     36869     36449     23904     19902     16019     22641     39777      6380      7015      7027     12426     12957     18485     17299 
dram[5]:     18580     18437     32763     36919     17285     20021     16801     19736     42905     43432      9302      6892     11366     12229     16420     15574 
dram[6]:     21479     21381     37846     40733     15360     19035     22611     33985      7827      6380      7015      9772     12426     12957     18485     17299 
dram[7]:     18567     17430     32687     36417     17920     20707     21127     21526     43601     47515      6878      6892     11366     12229     16420     15574 
dram[8]:     21490     22330     37657     37020     21143     17689     32482     14689     37501     46784      7015      8271     12426     12957     18485     17299 
dram[9]:     18565     17137     33286     35891     24732     19826     23591     20495     29928     50337      6878      8870     11366     12229     16420     15574 
dram[10]:     21505     20857     39340     39092     17190     17663     24250     16623     37201      6380      7015      8281     12426     12957     18485     17299 
dram[11]:     18564     18606     35795     36225     19383     18592     25872     22268     31339     48591      6878      6892     11366     12229     16420     15574 
dram[12]:     21538     21627     36971     37878     13295     18904     33939     25582     11424      6380      7015      7027     12426     12957     18485     17299 
dram[13]:     18564     17418     35546     37329     18267     20416     25081     25418     52248     50607      6878      6892     11366     12229     16420     15574 
dram[14]:     21542     22175     38143     38411     19434     18453     23556     22623     42708      6380      7015      7027     12426     12957     18485     17299 
dram[15]:     18580     17269     37192     37934     16184     18169     20341     24843     43655     46818      6878      6892     11366     12229     16420     15574 
dram[16]:     21397     21518     39376     39428     19047     21405     22958     25132     43698      6380      7015     11290     12426     12957     18485     17299 
dram[17]:     18675     17915     37116     36012     24203     17916     23493     27203     41896     46111      6878     10118     11366     12229     16420     15574 
dram[18]:     21899     20308     38204     38389     19927     16583     34755     30943     43586      6380      7015     13878     14643     12957     18694     17260 
dram[19]:     18513     17858     34917     37991     23270     18654     27350     27180     41206      6330      6878      6892     11366     12229     16301     15705 
dram[20]:     21630     20885     36311     39549     20710     16108     18405     21769     47364     33336      7015     10566     12426     12957     18694     17260 
dram[21]:     18553     16702     36976     37870     22463     18812     30146     24499     41690     41932      6878      8855     13099     12229     16301     15705 
dram[22]:     21702     20094     38693     37639     18437     19189     22543     20271     38342      6380      7015      7027     12426     12957     18694     17260 
dram[23]:     18581     16915     37126     35730     22403     19307     18373     21928     37499     40528      6878      8473     11366     12229     16301     15705 
dram[24]:     21663     20508     36922     37614     22953     18165     23069     25774     35133     46283      8335      7027     12426     12957     18694     17260 
dram[25]:     18589     16400     35705     36561     25601     18460     25751     34009     36867     36167      6878      6892     11366     12229     16301     15705 
dram[26]:     21723     20218     36198     35920     23356     19134     25794     20702     37761      6380      7015     11421     12426     12957     18694     17260 
dram[27]:     18568     16876     35613     35189     25405     20163     20605     14877     42210     45052      6878      8115     11366     12229     16301     15705 
dram[28]:     22216     20429     36883     37408     17715     16153     27604     17894     44696     33881      7015      7027     12426     12957     18694     17260 
dram[29]:     19117     16504     37247     35425     17918     19023     32205     24930     35192     33141      6878      7856     11366     12229     16301     15705 
dram[30]:     22270     19854     38946     37055     18835     20212     35820     28184     40359      8064      7015     10936     12426     12957     18882     17352 
dram[31]:     18640     18505     37108     34179     20936     19991     18088     29649     40876     47713      6878      8380     11366     12229     16289     15701 
average row accesses per activate:
dram[0]:  5.318386  5.524138  5.703704  5.994302  6.680000  6.462963  7.079646  7.008474  6.307693  6.658228  6.491979  6.537838  6.264059  5.858124  5.806378  5.273487 
dram[1]:  4.617108  4.670082  5.106173  5.061125  5.557632  5.790997  5.843866  5.829710  5.097297  5.305555  5.263658  5.158508  5.251686  5.196429  4.878151  4.780538 
dram[2]:  5.012821  5.288546  5.861357  6.121037  6.375000  6.951220  6.987288  6.965958  6.210210  6.634921  6.110276  5.780952  6.057143  5.578948  5.315126  5.179012 
dram[3]:  4.628337  4.612576  4.753456  5.307888  5.303571  5.581761  5.760714  5.484429  5.189041  5.376770  5.022676  5.200000  5.555820  4.845511  4.708835  4.642000 
dram[4]:  5.129237  5.396861  5.762431  5.834734  6.048148  6.267658  6.728034  7.314159  6.299694  6.887789  6.019802  6.487936  5.491342  6.355000  5.189796  5.333333 
dram[5]:  4.292543  4.587269  4.792771  5.247475  4.740634  5.435331  5.264407  5.906615  5.322946  5.419540  5.196721  5.099768  5.491765  4.987124  4.972399  4.683570 
dram[6]:  4.919087  4.786585  5.473118  5.232620  5.863309  5.479021  6.887029  6.618853  6.366460  6.679487  6.402116  6.777778  6.208232  5.709172  5.633554  4.561718 
dram[7]:  4.840086  4.690083  5.417755  5.092683  5.206587  5.566456  5.340000  5.442953  5.094594  5.463977  5.059361  5.351089  5.517731  5.114537  5.148889  4.837161 
dram[8]:  5.372768  5.416856  5.620879  6.002857  6.121212  6.098182  7.509091  7.060086  6.387692  6.884489  6.131646  6.552561  5.845622  6.351485  5.215606  5.757303 
dram[9]:  4.636734  4.768085  5.002409  5.430052  5.197102  5.572327  5.742160  5.624138  5.167116  5.244505  5.025000  5.690537  5.067983  5.313636  4.800412  4.795877 
dram[10]:  5.508046  5.403153  6.122449  5.958944  7.086957  6.520913  7.172414  6.890296  6.481250  6.572785  6.467915  6.547170  6.201457  6.994535  5.927570  5.825688 
dram[11]:  4.668050  5.006652  5.121287  5.317135  5.130435  6.013029  5.547039  5.956204  5.270195  5.308540  4.977629  5.504951  5.440559  5.152655  4.825000  5.076419 
dram[12]:  5.579812  5.667470  5.522911  5.944767  6.398496  6.653226  7.043668  7.178261  6.597444  6.685897  6.689560  6.937143  6.459391  6.224939  5.841014  5.642857 
dram[13]:  4.833694  4.800857  4.940334  4.862408  5.220588  5.679054  5.514084  5.646209  5.130435  5.497093  5.061503  5.619289  5.396752  5.060870  5.139689  4.810021 
dram[14]:  5.198276  5.138462  5.903409  5.862170  6.271698  6.648980  7.240000  7.285714  6.467290  6.217262  6.449736  6.425926  5.962704  5.976581  5.402543  5.104418 
dram[15]:  4.711900  4.784067  5.183168  5.439154  5.792332  5.409375  5.532203  5.511945  4.852041  5.298343  4.679325  5.415049  5.165198  5.289593  4.974194  4.737805 
dram[16]:  4.997881  4.830578  5.467915  5.569445  6.121324  6.289963  6.911765  6.774590  6.468750  6.500000  6.371728  5.837264  6.052381  5.168357  5.434042  5.031809 
dram[17]:  4.659044  4.783158  5.122500  5.305128  5.319277  5.851974  5.561644  5.560403  5.269972  4.966667  4.968610  5.184758  4.866388  5.334096  5.091503  5.043384 
dram[18]:  5.431461  4.928118  5.637362  5.151762  6.032374  6.164179  7.110169  6.627531  6.330275  6.777420  6.128463  6.963483  5.964789  6.410579  5.506465  5.500000 
dram[19]:  4.745263  5.081264  5.172932  5.259068  5.532508  5.926422  5.551021  5.678571  5.243169  5.352941  5.163934  5.387560  5.083333  5.174107  4.974249  4.917021 
dram[20]:  5.346667  5.621495  5.968023  6.051051  6.778656  6.546512  6.970339  6.911017  6.482759  6.796116  6.070000  6.471053  5.733485  6.100719  5.575824  6.235294 
dram[21]:  4.860814  4.910480  5.106436  4.887805  5.580060  5.706081  5.363935  5.574468  5.056150  5.511428  5.066514  5.344418  5.061002  5.041215  5.080963  4.906977 
dram[22]:  5.723404  5.975186  5.891667  6.250000  6.439850  6.841085  7.060345  6.966386  6.532916  6.779935  6.474667  6.719346  6.076372  6.645833  5.735294  5.965035 
dram[23]:  4.750528  4.825160  4.957346  5.053709  5.198225  5.416149  5.547619  5.863971  5.416902  5.468572  5.155814  5.323113  5.175556  5.089715  5.047722  4.770020 
dram[24]:  5.557340  6.134518  6.216763  6.248503  6.639215  6.444867  7.091304  7.082970  6.655949  6.740385  6.253886  6.754098  5.997636  6.293827  5.861751  6.120193 
dram[25]:  4.971428  5.210162  5.401555  5.509434  5.628483  5.719745  5.661972  5.883212  5.124661  5.384831  5.130841  5.348341  5.187920  5.377011  5.028322  5.231461 
dram[26]:  5.300885  5.407323  6.048295  5.879880  6.427481  6.719512  7.386364  7.110620  6.870432  7.231034  6.259640  6.525066  5.896313  5.766440  5.511930  5.278008 
dram[27]:  4.604939  4.818763  5.019048  5.517150  5.297935  6.274914  5.525252  5.564626  5.363380  5.234972  5.136574  4.991131  5.211581  5.138462  4.985075  4.907173 
dram[28]:  5.596698  5.579439  5.844875  6.243750  6.507463  6.865306  6.917012  7.056522  6.674121  6.279279  6.077694  6.312020  6.021226  6.322500  5.561135  5.811060 
dram[29]:  4.927790  4.804671  5.215000  5.300505  5.578125  5.732899  5.627986  5.744755  5.203252  5.157333  4.924612  5.113895  5.107221  5.320366  4.927966  4.747433 
dram[30]:  5.307693  5.641510  5.926136  5.976120  6.911290  6.669355  6.887029  6.811475  6.280120  6.678344  5.744681  6.420779  5.661470  5.985849  5.160569  5.541485 
dram[31]:  4.907127  4.674897  5.221945  5.545699  5.582554  5.763935  5.924188  5.563140  5.178862  5.402817  5.184397  5.033632  4.984946  5.030568  4.698189  4.822547 
average row locality = 1083247/194252 = 5.576504
number of total memory accesses made:
dram[0]:         0         0         0         0         0         0         0         0         0         0         0         0         0         0         0         0 
dram[1]:         0         0         0         0         0         0         0         0         0         0         0         0         0         0         0         0 
dram[2]:         0         0         0         0         0         0         0         0         0         0         0         0         0         0         0         0 
dram[3]:         0         0         0         0         0         0         0         0         0         0         0         0         0         0         0         0 
dram[4]:         0         0         0         0         0         0         0         0         0         0         0         0         0         0         0         0 
dram[5]:         0         0         0         0         0         0         0         0         0         0         0         0         0         0         0         0 
dram[6]:         0         0         0         0         0         0         0         0         0         0         0         0         0         0         0         0 
dram[7]:         0         0         0         0         0         0         0         0         0         0         0         0         0         0         0         0 
dram[8]:         0         0         0         0         0         0         0         0         0         0         0         0         0         0         0         0 
dram[9]:         0         0         0         0         0         0         0         0         0         0         0         0         0         0         0         0 
dram[10]:         0         0         0         0         0         0         0         0         0         0         0         0         0         0         0         0 
dram[11]:         0         0         0         0         0         0         0         0         0         0         0         0         0         0         0         0 
dram[12]:         0         0         0         0         0         0         0         0         0         0         0         0         0         0         0         0 
[...]
Issued_on_Two_Bus_Simul_Util = 0.111619 
issued_two_Eff = 0.152510 
queue_avg = 47.247719 


dram_util_bins: 0 0 0 0 0 0 0 0 0 0
dram_eff_bins: 0 0 0 0 0 0 0 0 0 0
mrqq: max=64 avg=47.2477
Memory Partition 28: 
Cache L2_bank_056:

Cache L2_bank_057:

In Dram Latency Queue (total = 177): 
DRAM[28]: 16 bks, busW=16 BL=2 CL=12, tRRD=3 tCCD=1, tRCD=12 tRAS=28 tRP=12 tRC=40
n_cmd=77164 n_nop=18041 n_act=5668 n_pre=5652 n_ref_event=0 n_req=34873 n_rd=19353 n_rd_L2_A=0 n_write=0 n_wr_bk=36277 bw_util=0.7209
n_activity=72211 dram_eff=0.7704
bk0: 1224a 50610i bk1: 1224a 50576i bk2: 1136a 54740i bk3: 1128a 55721i bk4: 1128a 58119i bk5: 1128a 57935i bk6: 1128a 62113i bk7: 1129a 62951i bk8: 1224a 59775i bk9: 1224a 57782i bk10: 1280a 51639i bk11: 1280a 49439i bk12: 1280a 47235i bk13: 1280a 46927i bk14: 1280a 43855i bk15: 1280a 44000i 

------------------------------------------------------------------------

Row_Buffer_Locality = 0.837140
Row_Buffer_Locality_read = 0.828924
Row_Buffer_Locality_write = 0.847428
Bank_Level_Parallism = 5.785162
Bank_Level_Parallism_Col = 4.268444
Bank_Level_Parallism_Ready = 2.197034
write_to_read_ratio_blp_rw_average = 0.551224
GrpLevelPara = 3.040199 

BW Util details:
bwutil = 0.720932 
total_CMD = 77164 
util_bw = 55630 
Wasted_Col = 15618 
Wasted_Row = 662 
Idle = 5254 

BW Util Bottlenecks: 
RCDc_limit = 15613 
RCDWRc_limit = 4138 
WTRc_limit = 10828 
RTWc_limit = 13697 
CCDLc_limit = 12529 
rwq = 0 
CCDLc_limit_alone = 10439 
WTRc_limit_alone = 9733 
RTWc_limit_alone = 12702 

Commands details: 
total_CMD = 77164 
n_nop = 18041 
Read = 19353 
Write = 0 
L2_Alloc = 0 
L2_WB = 36277 
n_act = 5668 
n_pre = 5652 
n_ref = 0 
n_req = 34873 
total_req = 55630 

Dual Bus Interface Util: 
issued_total_row = 11320 
issued_total_col = 55630 
Row_Bus_Util =  0.146701 
CoL_Bus_Util = 0.720932 
Either_Row_CoL_Bus_Util = 0.766199 
Issued_on_Two_Bus_Simul_Util = 0.101433 
issued_two_Eff = 0.132385 
queue_avg = 49.674149 


dram_util_bins: 0 0 0 0 0 0 0 0 0 0
dram_eff_bins: 0 0 0 0 0 0 0 0 0 0
mrqq: max=64 avg=49.6741
Memory Partition 29: 
Cache L2_bank_058:

Cache L2_bank_059:

In Dram Latency Queue (total = 185): 
DRAM[29]: 16 bks, busW=16 BL=2 CL=12, tRRD=3 tCCD=1, tRCD=12 tRAS=28 tRP=12 tRC=40
n_cmd=77164 n_nop=20841 n_act=6414 n_pre=6399 n_ref_event=0 n_req=33218 n_rd=16940 n_rd_L2_A=0 n_write=0 n_wr_bk=35123 bw_util=0.6747
n_activity=71207 dram_eff=0.7312
bk0: 1071a 51363i bk1: 1071a 50539i bk2: 994a 55128i bk3: 987a 54193i bk4: 987a 57910i bk5: 987a 58075i bk6: 987a 62394i bk7: 994a 61770i bk8: 1071a 59332i bk9: 1071a 57491i bk10: 1120a 53377i bk11: 1120a 51684i bk12: 1120a 50605i bk13: 1120a 47583i bk14: 1120a 46606i bk15: 1120a 45647i 

------------------------------------------------------------------------

Row_Buffer_Locality = 0.806449
Row_Buffer_Locality_read = 0.806848
Row_Buffer_Locality_write = 0.806032
Bank_Level_Parallism = 5.718096
Bank_Level_Parallism_Col = 3.919911
Bank_Level_Parallism_Ready = 1.999866
write_to_read_ratio_blp_rw_average = 0.586794
GrpLevelPara = 2.898478 

BW Util details:
bwutil = 0.674706 
total_CMD = 77164 
util_bw = 52063 
Wasted_Col = 17524 
Wasted_Row = 1079 
Idle = 6498 

BW Util Bottlenecks: 
RCDc_limit = 16730 
RCDWRc_limit = 6597 
WTRc_limit = 8436 
RTWc_limit = 14161 
CCDLc_limit = 12712 
rwq = 0 
CCDLc_limit_alone = 10901 
WTRc_limit_alone = 7593 
RTWc_limit_alone = 13193 

Commands details: 
total_CMD = 77164 
n_nop = 20841 
Read = 16940 
Write = 0 
L2_Alloc = 0 
L2_WB = 35123 
n_act = 6414 
n_pre = 6399 
n_ref = 0 
n_req = 33218 
total_req = 52063 

Dual Bus Interface Util: 
issued_total_row = 12813 
issued_total_col = 52063 
Row_Bus_Util =  0.166049 
CoL_Bus_Util = 0.674706 
Either_Row_CoL_Bus_Util = 0.729913 
Issued_on_Two_Bus_Simul_Util = 0.110842 
issued_two_Eff = 0.151856 
queue_avg = 46.916737 


dram_util_bins: 0 0 0 0 0 0 0 0 0 0
dram_eff_bins: 0 0 0 0 0 0 0 0 0 0
mrqq: max=64 avg=46.9167
Memory Partition 30: 
Cache L2_bank_060:

Cache L2_bank_061:

In Dram Latency Queue (total = 180): 
DRAM[30]: 16 bks, busW=16 BL=2 CL=12, tRRD=3 tCCD=1, tRCD=12 tRAS=28 tRP=12 tRC=40
n_cmd=77164 n_nop=17871 n_act=5820 n_pre=5806 n_ref_event=0 n_req=34876 n_rd=19360 n_rd_L2_A=0 n_write=0 n_wr_bk=36224 bw_util=0.7203
n_activity=72466 dram_eff=0.767
bk0: 1224a 48820i bk1: 1224a 51043i bk2: 1136a 55787i bk3: 1128a 56554i bk4: 1128a 58203i bk5: 1128a 60759i bk6: 1128a 62903i bk7: 1136a 62935i bk8: 1224a 59016i bk9: 1224a 58903i bk10: 1280a 51578i bk11: 1280a 50603i bk12: 1280a 47811i bk13: 1280a 47536i bk14: 1280a 37789i bk15: 1280a 39760i 

------------------------------------------------------------------------

Row_Buffer_Locality = 0.832759
Row_Buffer_Locality_read = 0.826601
Row_Buffer_Locality_write = 0.840474
Bank_Level_Parallism = 5.808528
Bank_Level_Parallism_Col = 4.262026
Bank_Level_Parallism_Ready = 2.146283
write_to_read_ratio_blp_rw_average = 0.540574
GrpLevelPara = 3.049086 

BW Util details:
bwutil = 0.720336 
total_CMD = 77164 
util_bw = 55584 
Wasted_Col = 15764 
Wasted_Row = 861 
Idle = 4955 

BW Util Bottlenecks: 
RCDc_limit = 16570 
RCDWRc_limit = 4098 
WTRc_limit = 10428 
RTWc_limit = 14143 
CCDLc_limit = 12076 
rwq = 0 
CCDLc_limit_alone = 10095 
WTRc_limit_alone = 9361 
RTWc_limit_alone = 13229 

Commands details: 
total_CMD = 77164 
n_nop = 17871 
Read = 19360 
Write = 0 
L2_Alloc = 0 
L2_WB = 36224 
n_act = 5820 
n_pre = 5806 
n_ref = 0 
n_req = 34876 
total_req = 55584 

Dual Bus Interface Util: 
issued_total_row = 11626 
issued_total_col = 55584 
Row_Bus_Util =  0.150666 
CoL_Bus_Util = 0.720336 
Either_Row_CoL_Bus_Util = 0.768402 
Issued_on_Two_Bus_Simul_Util = 0.102600 
issued_two_Eff = 0.133523 
queue_avg = 48.850784 


dram_util_bins: 0 0 0 0 0 0 0 0 0 0
dram_eff_bins: 0 0 0 0 0 0 0 0 0 0
mrqq: max=64 avg=48.8508
Memory Partition 31: 
Cache L2_bank_062:

Cache L2_bank_063:

In Dram Latency Queue (total = 190): 
DRAM[31]: 16 bks, busW=16 BL=2 CL=12, tRRD=3 tCCD=1, tRCD=12 tRAS=28 tRP=12 tRC=40
n_cmd=77164 n_nop=20972 n_act=6409 n_pre=6393 n_ref_event=0 n_req=33116 n_rd=16940 n_rd_L2_A=0 n_write=0 n_wr_bk=35018 bw_util=0.6733
n_activity=71634 dram_eff=0.7253
bk0: 1071a 51394i bk1: 1071a 50208i bk2: 994a 55419i bk3: 987a 56252i bk4: 987a 58169i bk5: 987a 57403i bk6: 987a 62434i bk7: 994a 61944i bk8: 1071a 59121i bk9: 1071a 58396i bk10: 1120a 52519i bk11: 1120a 49923i bk12: 1120a 48815i bk13: 1120a 48341i bk14: 1120a 44737i bk15: 1120a 48593i 

------------------------------------------------------------------------

Row_Buffer_Locality = 0.806087
Row_Buffer_Locality_read = 0.807851
Row_Buffer_Locality_write = 0.804232
Bank_Level_Parallism = 5.682396
Bank_Level_Parallism_Col = 3.929114
Bank_Level_Parallism_Ready = 2.007044
write_to_read_ratio_blp_rw_average = 0.596461
GrpLevelPara = 2.891450 

BW Util details:
bwutil = 0.673345 
total_CMD = 77164 
util_bw = 51958 
Wasted_Col = 17561 
Wasted_Row = 1579 
Idle = 6066 

BW Util Bottlenecks: 
RCDc_limit = 16683 
RCDWRc_limit = 6463 
WTRc_limit = 9558 
RTWc_limit = 14350 
CCDLc_limit = 12956 
rwq = 0 
CCDLc_limit_alone = 10717 
WTRc_limit_alone = 8416 
RTWc_limit_alone = 13253 

Commands details: 
total_CMD = 77164 
n_nop = 20972 
Read = 16940 
Write = 0 
L2_Alloc = 0 
L2_WB = 35018 
n_act = 6409 
n_pre = 6393 
n_ref = 0 
n_req = 33116 
total_req = 51958 

Dual Bus Interface Util: 
issued_total_row = 12802 
issued_total_col = 51958 
Row_Bus_Util =  0.165906 
CoL_Bus_Util = 0.673345 
Either_Row_CoL_Bus_Util = 0.728215 
Issued_on_Two_Bus_Simul_Util = 0.111036 
issued_two_Eff = 0.152477 
queue_avg = 45.500183 


dram_util_bins: 0 0 0 0 0 0 0 0 0 0
dram_eff_bins: 0 0 0 0 0 0 0 0 0 0
mrqq: max=64 avg=45.5002

========= L2 cache stats =========
L2_cache_bank[0]: Access = 26076, Miss = 19441, Miss_rate = 0.746, Pending_hits = 0, Reservation_fails = 4125
L2_cache_bank[1]: Access = 26650, Miss = 19823, Miss_rate = 0.744, Pending_hits = 0, Reservation_fails = 3901
L2_cache_bank[2]: Access = 25560, Miss = 19132, Miss_rate = 0.749, Pending_hits = 0, Reservation_fails = 393
L2_cache_bank[3]: Access = 25692, Miss = 19239, Miss_rate = 0.749, Pending_hits = 0, Reservation_fails = 2190
L2_cache_bank[4]: Access = 26145, Miss = 19540, Miss_rate = 0.747, Pending_hits = 0, Reservation_fails = 2522
L2_cache_bank[5]: Access = 26596, Miss = 19810, Miss_rate = 0.745, Pending_hits = 0, Reservation_fails = 7397
L2_cache_bank[6]: Access = 25695, Miss = 19174, Miss_rate = 0.746, Pending_hits = 0, Reservation_fails = 2531
L2_cache_bank[7]: Access = 25550, Miss = 19158, Miss_rate = 0.750, Pending_hits = 0, Reservation_fails = 2030
L2_cache_bank[8]: Access = 26262, Miss = 19559, Miss_rate = 0.745, Pending_hits = 0, Reservation_fails = 2719
L2_cache_bank[9]: Access = 26402, Miss = 19610, Miss_rate = 0.743, Pending_hits = 0, Reservation_fails = 3243
L2_cache_bank[10]: Access = 25129, Miss = 18748, Miss_rate = 0.746, Pending_hits = 0, Reservation_fails = 2958
L2_cache_bank[11]: Access = 25289, Miss = 19010, Miss_rate = 0.752, Pending_hits = 0, Reservation_fails = 986
L2_cache_bank[12]: Access = 26199, Miss = 19447, Miss_rate = 0.742, Pending_hits = 0, Reservation_fails = 2376
L2_cache_bank[13]: Access = 25918, Miss = 19298, Miss_rate = 0.745, Pending_hits = 0, Reservation_fails = 2622
L2_cache_bank[14]: Access = 25621, Miss = 19112, Miss_rate = 0.746, Pending_hits = 0, Reservation_fails = 2875
L2_cache_bank[15]: Access = 25789, Miss = 19244, Miss_rate = 0.746, Pending_hits = 0, Reservation_fails = 1274
L2_cache_bank[16]: Access = 26280, Miss = 19529, Miss_rate = 0.743, Pending_hits = 0, Reservation_fails = 2395
L2_cache_bank[17]: Access = 26401, Miss = 19564, Miss_rate = 0.741, Pending_hits = 0, Reservation_fails = 5672
L2_cache_bank[18]: Access = 25835, Miss = 19323, Miss_rate = 0.748, Pending_hits = 0, Reservation_fails = 2052
L2_cache_bank[19]: Access = 25729, Miss = 19176, Miss_rate = 0.745, Pending_hits = 0, Reservation_fails = 1119
L2_cache_bank[20]: Access = 26726, Miss = 19830, Miss_rate = 0.742, Pending_hits = 0, Reservation_fails = 4648
L2_cache_bank[21]: Access = 26403, Miss = 19591, Miss_rate = 0.742, Pending_hits = 0, Reservation_fails = 2518
L2_cache_bank[22]: Access = 25577, Miss = 19083, Miss_rate = 0.746, Pending_hits = 0, Reservation_fails = 2150
L2_cache_bank[23]: Access = 25907, Miss = 19332, Miss_rate = 0.746, Pending_hits = 0, Reservation_fails = 2990
L2_cache_bank[24]: Access = 26324, Miss = 19569, Miss_rate = 0.743, Pending_hits = 0, Reservation_fails = 3149
L2_cache_bank[25]: Access = 26227, Miss = 19477, Miss_rate = 0.743, Pending_hits = 0, Reservation_fails = 2450
L2_cache_bank[26]: Access = 25493, Miss = 19049, Miss_rate = 0.747, Pending_hits = 0, Reservation_fails = 2752
L2_cache_bank[27]: Access = 25124, Miss = 18814, Miss_rate = 0.749, Pending_hits = 0, Reservation_fails = 1087
L2_cache_bank[28]: Access = 26338, Miss = 19520, Miss_rate = 0.741, Pending_hits = 0, Reservation_fails = 2858
L2_cache_bank[29]: Access = 26159, Miss = 19533, Miss_rate = 0.747, Pending_hits = 0, Reservation_fails = 5664
L2_cache_bank[30]: Access = 25773, Miss = 19207, Miss_rate = 0.745, Pending_hits = 0, Reservation_fails = 2521
L2_cache_bank[31]: Access = 25607, Miss = 19074, Miss_rate = 0.745, Pending_hits = 0, Reservation_fails = 1300
L2_cache_bank[32]: Access = 26272, Miss = 19510, Miss_rate = 0.743, Pending_hits = 0, Reservation_fails = 1748
L2_cache_bank[33]: Access = 26424, Miss = 19619, Miss_rate = 0.742, Pending_hits = 0, Reservation_fails = 4063
L2_cache_bank[34]: Access = 25617, Miss = 19097, Miss_rate = 0.745, Pending_hits = 0, Reservation_fails = 4497
L2_cache_bank[35]: Access = 25921, Miss = 19288, Miss_rate = 0.744, Pending_hits = 0, Reservation_fails = 675
L2_cache_bank[36]: Access = 26483, Miss = 19654, Miss_rate = 0.742, Pending_hits = 0, Reservation_fails = 3979
L2_cache_bank[37]: Access = 26056, Miss = 19416, Miss_rate = 0.745, Pending_hits = 0, Reservation_fails = 3574
L2_cache_bank[38]: Access = 25648, Miss = 19162, Miss_rate = 0.747, Pending_hits = 0, Reservation_fails = 142
L2_cache_bank[39]: Access = 25472, Miss = 19069, Miss_rate = 0.749, Pending_hits = 0, Reservation_fails = 2909
L2_cache_bank[40]: Access = 26573, Miss = 19782, Miss_rate = 0.744, Pending_hits = 0, Reservation_fails = 1922
L2_cache_bank[41]: Access = 26365, Miss = 19648, Miss_rate = 0.745, Pending_hits = 0, Reservation_fails = 7134
L2_cache_bank[42]: Access = 25588, Miss = 19191, Miss_rate = 0.750, Pending_hits = 0, Reservation_fails = 50
L2_cache_bank[43]: Access = 25294, Miss = 18993, Miss_rate = 0.751, Pending_hits = 0, Reservation_fails = 2229
L2_cache_bank[44]: Access = 26626, Miss = 19775, Miss_rate = 0.743, Pending_hits = 0, Reservation_fails = 5622
L2_cache_bank[45]: Access = 26716, Miss = 19784, Miss_rate = 0.741, Pending_hits = 0, Reservation_fails = 7274
L2_cache_bank[46]: Access = 25656, Miss = 19160, Miss_rate = 0.747, Pending_hits = 0, Reservation_fails = 681
L2_cache_bank[47]: Access = 25487, Miss = 19047, Miss_rate = 0.747, Pending_hits = 0, Reservation_fails = 1507
L2_cache_bank[48]: Access = 26613, Miss = 19738, Miss_rate = 0.742, Pending_hits = 0, Reservation_fails = 1860
L2_cache_bank[49]: Access = 26551, Miss = 19658, Miss_rate = 0.740, Pending_hits = 0, Reservation_fails = 4851
L2_cache_bank[50]: Access = 25570, Miss = 19200, Miss_rate = 0.751, Pending_hits = 0, Reservation_fails = 200
L2_cache_bank[51]: Access = 25515, Miss = 19084, Miss_rate = 0.748, Pending_hits = 0, Reservation_fails = 2044
L2_cache_bank[52]: Access = 26487, Miss = 19660, Miss_rate = 0.742, Pending_hits = 0, Reservation_fails = 2822
L2_cache_bank[53]: Access = 26203, Miss = 19525, Miss_rate = 0.745, Pending_hits = 0, Reservation_fails = 2461
L2_cache_bank[54]: Access = 25762, Miss = 19227, Miss_rate = 0.746, Pending_hits = 0, Reservation_fails = 1966
L2_cache_bank[55]: Access = 25983, Miss = 19371, Miss_rate = 0.746, Pending_hits = 0, Reservation_fails = 1436
L2_cache_bank[56]: Access = 26717, Miss = 19804, Miss_rate = 0.741, Pending_hits = 0, Reservation_fails = 2953
L2_cache_bank[57]: Access = 26384, Miss = 19672, Miss_rate = 0.746, Pending_hits = 0, Reservation_fails = 6954
L2_cache_bank[58]: Access = 25816, Miss = 19256, Miss_rate = 0.746, Pending_hits = 0, Reservation_fails = 1793
L2_cache_bank[59]: Access = 25823, Miss = 19297, Miss_rate = 0.747, Pending_hits = 0, Reservation_fails = 1411
L2_cache_bank[60]: Access = 26610, Miss = 19717, Miss_rate = 0.741, Pending_hits = 0, Reservation_fails = 1812
L2_cache_bank[61]: Access = 26398, Miss = 19630, Miss_rate = 0.744, Pending_hits = 0, Reservation_fails = 3192
L2_cache_bank[62]: Access = 25829, Miss = 19298, Miss_rate = 0.747, Pending_hits = 0, Reservation_fails = 653
L2_cache_bank[63]: Access = 25716, Miss = 19244, Miss_rate = 0.748, Pending_hits = 0, Reservation_fails = 874
L2_total_cache_accesses = 1664651
L2_total_cache_misses = 1240592
L2_total_cache_miss_rate = 0.7453
L2_total_cache_pending_hits = 0
L2_total_cache_reservation_fails = 174755
L2_total_cache_breakdown:
	L2_cache_stats_breakdown[GLOBAL_ACC_R][HIT] = 0
	L2_cache_stats_breakdown[GLOBAL_ACC_R][HIT_RESERVED] = 0
	L2_cache_stats_breakdown[GLOBAL_ACC_R][MISS] = 155444
	L2_cache_stats_breakdown[GLOBAL_ACC_R][RESERVATION_FAIL] = 174755
	L2_cache_stats_breakdown[GLOBAL_ACC_R][SECTOR_MISS] = 427413
	L2_cache_stats_breakdown[LOCAL_ACC_R][HIT] = 0
	L2_cache_stats_breakdown[LOCAL_ACC_R][HIT_RESERVED] = 0
	L2_cache_stats_breakdown[LOCAL_ACC_R][MISS] = 0
	L2_cache_stats_breakdown[LOCAL_ACC_R][RESERVATION_FAIL] = 0
	L2_cache_stats_breakdown[LOCAL_ACC_R][SECTOR_MISS] = 0
	L2_cache_stats_breakdown[CONST_ACC_R][HIT] = 0
	L2_cache_stats_breakdown[CONST_ACC_R][HIT_RESERVED] = 0
	L2_cache_stats_breakdown[CONST_ACC_R][MISS] = 0
	L2_cache_stats_breakdown[CONST_ACC_R][RESERVATION_FAIL] = 0
	L2_cache_stats_breakdown[CONST_ACC_R][SECTOR_MISS] = 0
	L2_cache_stats_breakdown[TEXTURE_ACC_R][HIT] = 0
	L2_cache_stats_breakdown[TEXTURE_ACC_R][HIT_RESERVED] = 0
	L2_cache_stats_breakdown[TEXTURE_ACC_R][MISS] = 0
	L2_cache_stats_breakdown[TEXTURE_ACC_R][RESERVATION_FAIL] = 0
	L2_cache_stats_breakdown[TEXTURE_ACC_R][SECTOR_MISS] = 0
	L2_cache_stats_breakdown[GLOBAL_ACC_W][HIT] = 424059
	L2_cache_stats_breakdown[GLOBAL_ACC_W][HIT_RESERVED] = 0
	L2_cache_stats_breakdown[GLOBAL_ACC_W][MISS] = 161693
	L2_cache_stats_breakdown[GLOBAL_ACC_W][RESERVATION_FAIL] = 0
	L2_cache_stats_breakdown[GLOBAL_ACC_W][SECTOR_MISS] = 496042
	L2_cache_stats_breakdown[LOCAL_ACC_W][HIT] = 0
	L2_cache_stats_breakdown[LOCAL_ACC_W][HIT_RESERVED] = 0
	L2_cache_stats_breakdown[LOCAL_ACC_W][MISS] = 0
	L2_cache_stats_breakdown[LOCAL_ACC_W][RESERVATION_FAIL] = 0
	L2_cache_stats_breakdown[LOCAL_ACC_W][SECTOR_MISS] = 0
	L2_cache_stats_breakdown[L1_WRBK_ACC][HIT] = 0
	L2_cache_stats_breakdown[L1_WRBK_ACC][HIT_RESERVED] = 0
	L2_cache_stats_breakdown[L1_WRBK_ACC][MISS] = 0
	L2_cache_stats_breakdown[L1_WRBK_ACC][RESERVATION_FAIL] = 0
	L2_cache_stats_breakdown[L1_WRBK_ACC][SECTOR_MISS] = 0
	L2_cache_stats_breakdown[L2_WRBK_ACC][HIT] = 0
	L2_cache_stats_breakdown[L2_WRBK_ACC][HIT_RESERVED] = 0
	L2_cache_stats_breakdown[L2_WRBK_ACC][MISS] = 0
	L2_cache_stats_breakdown[L2_WRBK_ACC][RESERVATION_FAIL] = 0
	L2_cache_stats_breakdown[L2_WRBK_ACC][SECTOR_MISS] = 0
	L2_cache_stats_breakdown[INST_ACC_R][HIT] = 0
	L2_cache_stats_breakdown[INST_ACC_R][HIT_RESERVED] = 0
	L2_cache_stats_breakdown[INST_ACC_R][MISS] = 0
	L2_cache_stats_breakdown[INST_ACC_R][RESERVATION_FAIL] = 0
	L2_cache_stats_breakdown[INST_ACC_R][SECTOR_MISS] = 0
	L2_cache_stats_breakdown[L1_WR_ALLOC_R][HIT] = 0
	L2_cache_stats_breakdown[L1_WR_ALLOC_R][HIT_RESERVED] = 0
	L2_cache_stats_breakdown[L1_WR_ALLOC_R][MISS] = 0
	L2_cache_stats_breakdown[L1_WR_ALLOC_R][RESERVATION_FAIL] = 0
	L2_cache_stats_breakdown[L1_WR_ALLOC_R][SECTOR_MISS] = 0
	L2_cache_stats_breakdown[L2_WR_ALLOC_R][HIT] = 0
	L2_cache_stats_breakdown[L2_WR_ALLOC_R][HIT_RESERVED] = 0
	L2_cache_stats_breakdown[L2_WR_ALLOC_R][MISS] = 0
	L2_cache_stats_breakdown[L2_WR_ALLOC_R][RESERVATION_FAIL] = 0
	L2_cache_stats_breakdown[L2_WR_ALLOC_R][SECTOR_MISS] = 0
	L2_cache_stats_breakdown[GLOBAL_ACC_R][TOTAL_ACCESS] = 582857
	L2_cache_stats_breakdown[GLOBAL_ACC_W][TOTAL_ACCESS] = 1081794
L2_total_cache_reservation_fail_breakdown:
	L2_cache_stats_fail_breakdown[GLOBAL_ACC_R][MSHR_ENRTY_FAIL] = 174755
L2_cache_data_port_util = 0.104
L2_cache_fill_port_util = 0.088

icnt_total_pkts_mem_to_simt=1662550
icnt_total_pkts_simt_to_mem=1692694
LD_mem_lat_dist  0 0 0 0 0 0 0 0 0 0 0 0 0 0 0 0 0 0 0 0 0 0 0 0 0 0 0
ST_mem_lat_dist  0 0 0 0 0 0 0 0 0 0 0 0 0 0 0 0 0 0 0 0 0 0 0 0 0 0 0
----------------------------Interconnect-DETAILS--------------------------------
Req_Network_injected_packets_num = 1692694
Req_Network_cycles = 102764
Req_Network_injected_packets_per_cycle =      16.4717 
Req_Network_conflicts_per_cycle =      45.2223
Req_Network_conflicts_per_cycle_util =      47.6248
Req_Bank_Level_Parallism =      17.2332
Req_Network_in_buffer_full_per_cycle =      20.6658
Req_Network_in_buffer_avg_util =     223.8715
Req_Network_out_buffer_full_per_cycle =       6.0209
Req_Network_out_buffer_avg_util =     210.4342

Reply_Network_injected_packets_num = 1662594
Reply_Network_cycles = 102764
Reply_Network_injected_packets_per_cycle =       16.1788
Reply_Network_conflicts_per_cycle =        3.3801
Reply_Network_conflicts_per_cycle_util =       3.6808
Reply_Bank_Level_Parallism =      17.6176
Reply_Network_in_buffer_full_per_cycle =       0.0000
Reply_Network_in_buffer_avg_util =       0.4017
Reply_Network_out_buffer_full_per_cycle =       0.0000
Reply_Network_out_buffer_avg_util =       0.2022
----------------------------END-of-Interconnect-DETAILS-------------------------


gpgpu_simulation_time = 0 days, 0 hrs, 12 min, 18 sec (738 sec)
gpgpu_simulation_rate = 94313 (inst/sec)
gpgpu_simulation_rate = 139 (cycle/sec)
gpgpu_silicon_slowdown = 8143884x
GPGPU-Sim: *** simulation thread exiting ***
GPGPU-Sim: ** break due to reaching the maximum cycles (or instructions) **
GPGPU-Sim: *** exit detected ***
