

        *** GPGPU-Sim Simulator Version 4.0.0  [build gpgpu-sim_git-commit-ffe0a1a00e984ecce9bf36e17ab94c4de0de8108_modified_0.0] ***


GPGPU-Sim PTX: simulation mode 0 (can change with PTX_SIM_MODE_FUNC environment variable:
               1=functional simulation only, 0=detailed performance simulator)
GPGPU-Sim PTX: overriding embedded ptx with ptx file (PTX_SIM_USE_PTX_FILE is set)
GPGPU-Sim: Configuration options:

-save_embedded_ptx                      0 # saves ptx files embedded in binary as <n>.ptx
-keep                                   0 # keep intermediate files created by GPGPU-Sim when interfacing with external programs
-gpgpu_ptx_save_converted_ptxplus                    0 # Saved converted ptxplus to a file
-gpgpu_occupancy_sm_number                   70 # The SM number to pass to ptxas when getting register usage for computing GPU occupancy. This parameter is required in the config.
-ptx_opcode_latency_int      4,13,4,5,145,21 # Opcode latencies for integers <ADD,MAX,MUL,MAD,DIV,SHFL>Default 1,1,19,25,145,32
-ptx_opcode_latency_fp          4,13,4,5,39 # Opcode latencies for single precision floating points <ADD,MAX,MUL,MAD,DIV>Default 1,1,1,1,30
-ptx_opcode_latency_dp         8,19,8,8,330 # Opcode latencies for double precision floating points <ADD,MAX,MUL,MAD,DIV>Default 8,8,8,8,335
-ptx_opcode_latency_sfu                  100 # Opcode latencies for SFU instructionsDefault 8
-ptx_opcode_latency_tesnor                   64 # Opcode latencies for Tensor instructionsDefault 64
-ptx_opcode_initiation_int          2,2,2,2,8,4 # Opcode initiation intervals for integers <ADD,MAX,MUL,MAD,DIV,SHFL>Default 1,1,4,4,32,4
-ptx_opcode_initiation_fp            2,2,2,2,4 # Opcode initiation intervals for single precision floating points <ADD,MAX,MUL,MAD,DIV>Default 1,1,1,1,5
-ptx_opcode_initiation_dp          4,4,4,4,130 # Opcode initiation intervals for double precision floating points <ADD,MAX,MUL,MAD,DIV>Default 8,8,8,8,130
-ptx_opcode_initiation_sfu                    8 # Opcode initiation intervals for sfu instructionsDefault 8
-ptx_opcode_initiation_tensor                   64 # Opcode initiation intervals for tensor instructionsDefault 64
-cdp_latency         7200,8000,100,12000,1600 # CDP API latency <cudaStreamCreateWithFlags, cudaGetParameterBufferV2_init_perWarp, cudaGetParameterBufferV2_perKernel, cudaLaunchDeviceV2_init_perWarp, cudaLaunchDevicV2_perKernel>Default 7200,8000,100,12000,1600
-network_mode                           2 # Interconnection network mode
-inter_config_file                   mesh # Interconnection network config file
-icnt_in_buffer_limit                  512 # in_buffer_limit
-icnt_out_buffer_limit                  512 # out_buffer_limit
-icnt_subnets                           2 # subnets
-icnt_arbiter_algo                      1 # arbiter_algo
-icnt_verbose                           0 # inct_verbose
-icnt_grant_cycles                      1 # grant_cycles
-gpgpu_ptx_use_cuobjdump                    1 # Use cuobjdump to extract ptx and sass from binaries
-gpgpu_experimental_lib_support                    0 # Try to extract code from cuda libraries [Broken because of unknown cudaGetExportTable]
-checkpoint_option                      0 #  checkpointing flag (0 = no checkpoint)
-checkpoint_kernel                      1 #  checkpointing during execution of which kernel (1- 1st kernel)
-checkpoint_CTA                         0 #  checkpointing after # of CTA (< less than total CTA)
-resume_option                          0 #  resume flag (0 = no resume)
-resume_kernel                          0 #  Resume from which kernel (1= 1st kernel)
-resume_CTA                             0 #  resume from which CTA 
-checkpoint_CTA_t                       0 #  resume from which CTA 
-checkpoint_insn_Y                      0 #  resume from which CTA 
-gpgpu_ptx_convert_to_ptxplus                    0 # Convert SASS (native ISA) to ptxplus and run ptxplus
-gpgpu_ptx_force_max_capability                   70 # Force maximum compute capability
-gpgpu_ptx_inst_debug_to_file                    0 # Dump executed instructions' debug information to file
-gpgpu_ptx_inst_debug_file       inst_debug.txt # Executed instructions' debug output file
-gpgpu_ptx_inst_debug_thread_uid                    1 # Thread UID for executed instructions' debug output
-gpgpu_n_mem_for_l2wb_pcommit                   32 # number of memory modules (e.g. memory controllers) in gpu
-gpgpu_n_sub_partition_per_mchannel_for_l2wb_pcommit                    2 # number of memory subpartition in each memory module
-gpgpu_dl2_bsize_for_l2wb_pcommit                  128 # default 128 bytes
-gpgpu_simd_model                       1 # 1 = post-dominator
-gpgpu_shader_core_pipeline              2048:32 # shader core pipeline config, i.e., {<nthread>:<warpsize>}
-gpgpu_tex_cache:l1  N:4:128:256,L:R:m:N:L,T:512:8,128:2 # per-shader L1 texture cache  (READ-ONLY) config  {<nsets>:<bsize>:<assoc>,<rep>:<wr>:<alloc>:<wr_alloc>,<mshr>:<N>:<merge>,<mq>:<rf>}
-gpgpu_const_cache:l1 N:128:64:8,L:R:f:N:L,S:2:64,4 # per-shader L1 constant memory cache  (READ-ONLY) config  {<nsets>:<bsize>:<assoc>,<rep>:<wr>:<alloc>:<wr_alloc>,<mshr>:<N>:<merge>,<mq>} 
-gpgpu_cache:il1     N:64:128:16,L:R:f:N:L,S:2:48,4 # shader L1 instruction cache config  {<nsets>:<bsize>:<assoc>,<rep>:<wr>:<alloc>:<wr_alloc>,<mshr>:<N>:<merge>,<mq>} 
-gpgpu_cache:dl1     S:1:128:256,L:L:s:N:L,A:256:8,16:0,32 # per-shader L1 data cache config  {<nsets>:<bsize>:<assoc>,<rep>:<wr>:<alloc>:<wr_alloc>,<mshr>:<N>:<merge>,<mq> | none}
-gpgpu_l1_banks                         4 # The number of L1 cache banks
-gpgpu_l1_banks_byte_interleaving                   32 # l1 banks byte interleaving granularity
-gpgpu_l1_banks_hashing_function                    0 # l1 banks hashing function
-gpgpu_l1_latency                      20 # L1 Hit Latency
-gpgpu_smem_latency                    20 # smem Latency
-gpgpu_cache:dl1PrefL1                 none # per-shader L1 data cache config  {<nsets>:<bsize>:<assoc>,<rep>:<wr>:<alloc>:<wr_alloc>,<mshr>:<N>:<merge>,<mq> | none}
-gpgpu_cache:dl1PrefShared                 none # per-shader L1 data cache config  {<nsets>:<bsize>:<assoc>,<rep>:<wr>:<alloc>:<wr_alloc>,<mshr>:<N>:<merge>,<mq> | none}
-gpgpu_gmem_skip_L1D                    0 # global memory access skip L1D cache (implements -Xptxas -dlcm=cg, default=no skip)
-gpgpu_perfect_mem                      0 # enable perfect memory mode (no cache miss)
-n_regfile_gating_group                    4 # group of lanes that should be read/written together)
-gpgpu_clock_gated_reg_file                    0 # enable clock gated reg file for power calculations
-gpgpu_clock_gated_lanes                    0 # enable clock gated lanes for power calculations
-gpgpu_shader_registers                65536 # Number of registers per shader core. Limits number of concurrent CTAs. (default 8192)
-gpgpu_registers_per_block                65536 # Maximum number of registers per CTA. (default 8192)
-gpgpu_ignore_resources_limitation                    0 # gpgpu_ignore_resources_limitation (default 0)
-gpgpu_shader_cta                      32 # Maximum number of concurrent CTAs in shader (default 8)
-gpgpu_num_cta_barriers                   16 # Maximum number of named barriers per CTA (default 16)
-gpgpu_n_clusters                      80 # number of processing clusters
-gpgpu_n_cores_per_cluster                    1 # number of simd cores per cluster
-gpgpu_n_cluster_ejection_buffer_size                   32 # number of packets in ejection buffer
-gpgpu_n_ldst_response_buffer_size                    2 # number of response packets in ld/st unit ejection buffer
-gpgpu_shmem_per_block                65536 # Size of shared memory per thread block or CTA (default 48kB)
-gpgpu_shmem_size                   98304 # Size of shared memory per shader core (default 16kB)
-gpgpu_adaptive_cache_config            536870913 # adaptive_cache_config
-gpgpu_shmem_sizeDefault                98304 # Size of shared memory per shader core (default 16kB)
-gpgpu_shmem_size_PrefL1                16384 # Size of shared memory per shader core (default 16kB)
-gpgpu_shmem_size_PrefShared                16384 # Size of shared memory per shader core (default 16kB)
-gpgpu_shmem_num_banks                   32 # Number of banks in the shared memory in each shader core (default 16)
-gpgpu_shmem_limited_broadcast                    0 # Limit shared memory to do one broadcast per cycle (default on)
-gpgpu_shmem_warp_parts                    1 # Number of portions a warp is divided into for shared memory bank conflict check 
-gpgpu_mem_unit_ports                    1 # The number of memory transactions allowed per core cycle
-gpgpu_shmem_warp_parts                    1 # Number of portions a warp is divided into for shared memory bank conflict check 
-gpgpu_warpdistro_shader                   -1 # Specify which shader core to collect the warp size distribution from
-gpgpu_warp_issue_shader                    0 # Specify which shader core to collect the warp issue distribution from
-gpgpu_local_mem_map                    1 # Mapping from local memory space address to simulated GPU physical address space (default = enabled)
-gpgpu_num_reg_banks                   16 # Number of register banks (default = 8)
-gpgpu_reg_bank_use_warp_id                    0 # Use warp ID in mapping registers to banks (default = off)
-gpgpu_sub_core_model                    1 # Sub Core Volta/Pascal model (default = off)
-gpgpu_enable_specialized_operand_collector                    0 # enable_specialized_operand_collector
-gpgpu_operand_collector_num_units_sp                    4 # number of collector units (default = 4)
-gpgpu_operand_collector_num_units_dp                    0 # number of collector units (default = 0)
-gpgpu_operand_collector_num_units_sfu                    4 # number of collector units (default = 4)
-gpgpu_operand_collector_num_units_int                    0 # number of collector units (default = 0)
-gpgpu_operand_collector_num_units_tensor_core                    4 # number of collector units (default = 4)
-gpgpu_operand_collector_num_units_mem                    2 # number of collector units (default = 2)
-gpgpu_operand_collector_num_units_gen                    8 # number of collector units (default = 0)
-gpgpu_operand_collector_num_in_ports_sp                    1 # number of collector unit in ports (default = 1)
-gpgpu_operand_collector_num_in_ports_dp                    0 # number of collector unit in ports (default = 0)
-gpgpu_operand_collector_num_in_ports_sfu                    1 # number of collector unit in ports (default = 1)
-gpgpu_operand_collector_num_in_ports_int                    0 # number of collector unit in ports (default = 0)
-gpgpu_operand_collector_num_in_ports_tensor_core                    1 # number of collector unit in ports (default = 1)
-gpgpu_operand_collector_num_in_ports_mem                    1 # number of collector unit in ports (default = 1)
-gpgpu_operand_collector_num_in_ports_gen                    8 # number of collector unit in ports (default = 0)
-gpgpu_operand_collector_num_out_ports_sp                    1 # number of collector unit in ports (default = 1)
-gpgpu_operand_collector_num_out_ports_dp                    0 # number of collector unit in ports (default = 0)
-gpgpu_operand_collector_num_out_ports_sfu                    1 # number of collector unit in ports (default = 1)
-gpgpu_operand_collector_num_out_ports_int                    0 # number of collector unit in ports (default = 0)
-gpgpu_operand_collector_num_out_ports_tensor_core                    1 # number of collector unit in ports (default = 1)
-gpgpu_operand_collector_num_out_ports_mem                    1 # number of collector unit in ports (default = 1)
-gpgpu_operand_collector_num_out_ports_gen                    8 # number of collector unit in ports (default = 0)
-gpgpu_coalesce_arch                   60 # Coalescing arch (GT200 = 13, Fermi = 20)
-gpgpu_num_sched_per_core                    4 # Number of warp schedulers per core
-gpgpu_max_insn_issue_per_warp                    1 # Max number of instructions that can be issued per warp in one cycle by scheduler (either 1 or 2)
-gpgpu_dual_issue_diff_exec_units                    1 # should dual issue use two different execution unit resources (Default = 1)
-gpgpu_simt_core_sim_order                    1 # Select the simulation order of cores in a cluster (0=Fix, 1=Round-Robin)
-gpgpu_pipeline_widths 4,4,4,4,4,4,4,4,4,4,8,4,4 # Pipeline widths ID_OC_SP,ID_OC_DP,ID_OC_INT,ID_OC_SFU,ID_OC_MEM,OC_EX_SP,OC_EX_DP,OC_EX_INT,OC_EX_SFU,OC_EX_MEM,EX_WB,ID_OC_TENSOR_CORE,OC_EX_TENSOR_CORE
-gpgpu_tensor_core_avail                    1 # Tensor Core Available (default=0)
-gpgpu_num_sp_units                     4 # Number of SP units (default=1)
-gpgpu_num_dp_units                     4 # Number of DP units (default=0)
-gpgpu_num_int_units                    4 # Number of INT units (default=0)
-gpgpu_num_sfu_units                    4 # Number of SF units (default=1)
-gpgpu_num_tensor_core_units                    4 # Number of tensor_core units (default=1)
-gpgpu_num_mem_units                    1 # Number if ldst units (default=1) WARNING: not hooked up to anything
-gpgpu_scheduler                      gto # Scheduler configuration: < lrr | gto | two_level_active > If two_level_active:<num_active_warps>:<inner_prioritization>:<outer_prioritization>For complete list of prioritization values see shader.h enum scheduler_prioritization_typeDefault: gto
-gpgpu_concurrent_kernel_sm                    0 # Support concurrent kernels on a SM (default = disabled)
-gpgpu_perfect_inst_const_cache                    1 # perfect inst and const cache mode, so all inst and const hits in the cache(default = disabled)
-gpgpu_inst_fetch_throughput                    4 # the number of fetched intruction per warp each cycle
-gpgpu_reg_file_port_throughput                    2 # the number ports of the register file
-specialized_unit_1         0,4,4,4,4,BRA # specialized unit config {<enabled>,<num_units>:<latency>:<initiation>,<ID_OC_SPEC>:<OC_EX_SPEC>,<NAME>}
-specialized_unit_2         0,4,4,4,4,BRA # specialized unit config {<enabled>,<num_units>:<latency>:<initiation>,<ID_OC_SPEC>:<OC_EX_SPEC>,<NAME>}
-specialized_unit_3         0,4,4,4,4,BRA # specialized unit config {<enabled>,<num_units>:<latency>:<initiation>,<ID_OC_SPEC>:<OC_EX_SPEC>,<NAME>}
-specialized_unit_4         0,4,4,4,4,BRA # specialized unit config {<enabled>,<num_units>:<latency>:<initiation>,<ID_OC_SPEC>:<OC_EX_SPEC>,<NAME>}
-specialized_unit_5         0,4,4,4,4,BRA # specialized unit config {<enabled>,<num_units>:<latency>:<initiation>,<ID_OC_SPEC>:<OC_EX_SPEC>,<NAME>}
-specialized_unit_6         0,4,4,4,4,BRA # specialized unit config {<enabled>,<num_units>:<latency>:<initiation>,<ID_OC_SPEC>:<OC_EX_SPEC>,<NAME>}
-specialized_unit_7         0,4,4,4,4,BRA # specialized unit config {<enabled>,<num_units>:<latency>:<initiation>,<ID_OC_SPEC>:<OC_EX_SPEC>,<NAME>}
-specialized_unit_8         0,4,4,4,4,BRA # specialized unit config {<enabled>,<num_units>:<latency>:<initiation>,<ID_OC_SPEC>:<OC_EX_SPEC>,<NAME>}
-gpgpu_perf_sim_memcpy                    1 # Fill the L2 cache on memcpy
-gpgpu_simple_dram_model                    0 # simple_dram_model with fixed latency and BW
-gpgpu_dram_scheduler                    1 # 0 = fifo, 1 = FR-FCFS (defaul)
-gpgpu_dram_partition_queues          64:64:64:64 # i2$:$2d:d2$:$2i
-l2_ideal                               0 # Use a ideal L2 cache that always hit
-gpgpu_cache:dl2     S:32:128:24,L:B:m:L:P,A:192:4,32:0,32 # unified banked L2 data cache config  {<nsets>:<bsize>:<assoc>,<rep>:<wr>:<alloc>:<wr_alloc>,<mshr>:<N>:<merge>,<mq>}
-gpgpu_cache:dl2_texture_only                    0 # L2 cache used for texture only
-gpgpu_n_mem                           32 # number of memory modules (e.g. memory controllers) in gpu
-gpgpu_n_sub_partition_per_mchannel                    2 # number of memory subpartition in each memory module
-gpgpu_n_mem_per_ctrlr                    1 # number of memory chips per memory controller
-gpgpu_memlatency_stat                   14 # track and display latency statistics 0x2 enables MC, 0x4 enables queue logs
-gpgpu_frfcfs_dram_sched_queue_size                   64 # 0 = unlimited (default); # entries per chip
-gpgpu_dram_return_queue_size                  192 # 0 = unlimited (default); # entries per chip
-gpgpu_dram_buswidth                   16 # default = 4 bytes (8 bytes per cycle at DDR)
-gpgpu_dram_burst_length                    2 # Burst length of each DRAM request (default = 4 data bus cycle)
-dram_data_command_freq_ratio                    2 # Frequency ratio between DRAM data bus and command bus (default = 2 times, i.e. DDR)
-gpgpu_dram_timing_opt nbk=16:CCD=1:RRD=3:RCD=12:RAS=28:RP=12:RC=40: CL=12:WL=2:CDLR=3:WR=10:nbkgrp=4:CCDL=2:RTPL=3 # DRAM timing parameters = {nbk:tCCD:tRRD:tRCD:tRAS:tRP:tRC:CL:WL:tCDLR:tWR:nbkgrp:tCCDL:tRTPL}
-gpgpu_l2_rop_latency                  160 # ROP queue latency (default 85)
-dram_latency                         200 # DRAM latency (default 30)
-dram_write_latency                   600 # DRAM write latency (default 100)
-dram_dual_bus_interface                    1 # dual_bus_interface (default = 0) 
-dram_bnk_indexing_policy                    0 # dram_bnk_indexing_policy (0 = normal indexing, 1 = Xoring with the higher bits) (Default = 0)
-dram_bnkgrp_indexing_policy                    1 # dram_bnkgrp_indexing_policy (0 = take higher bits, 1 = take lower bits) (Default = 0)
-dram_seperate_write_queue_enable                    0 # Seperate_Write_Queue_Enable
-dram_write_queue_size             32:28:16 # Write_Queue_Size
-dram_elimnate_rw_turnaround                    0 # elimnate_rw_turnaround i.e set tWTR and tRTW = 0
-icnt_flit_size                        40 # icnt_flit_size
-gpgpu_mem_addr_mapping dramid@8;00000000.00000000.00000000.00000000.0000RRRR.RRRRRRRR.RBBBCCCB.CCCSSSSS # mapping memory address to dram model {dramid@<start bit>;<memory address map>}
-gpgpu_mem_addr_test                    0 # run sweep test to check address mapping for aliased address
-gpgpu_mem_address_mask                    1 # 0 = old addressing mask, 1 = new addressing mask, 2 = new add. mask + flipped bank sel and chip sel bits
-gpgpu_memory_partition_indexing                    0 # 0 = no indexing, 1 = bitwise xoring, 2 = IPoly, 3 = custom indexing
-gpuwattch_xml_file         gpuwattch.xml # GPUWattch XML file
-power_simulation_enabled                    0 # Turn on power simulator (1=On, 0=Off)
-power_per_cycle_dump                    0 # Dump detailed power output each cycle
-power_trace_enabled                    0 # produce a file for the power trace (1=On, 0=Off)
-power_trace_zlevel                     6 # Compression level of the power trace output log (0=no comp, 9=highest)
-steady_power_levels_enabled                    0 # produce a file for the steady power levels (1=On, 0=Off)
-steady_state_definition                  8:4 # allowed deviation:number of samples
-gpgpu_max_cycle                        0 # terminates gpu simulation early (0 = no limit)
-gpgpu_max_insn                         0 # terminates gpu simulation early (0 = no limit)
-gpgpu_max_cta                          0 # terminates gpu simulation early (0 = no limit)
-gpgpu_max_completed_cta                 1000 # terminates gpu simulation early (0 = no limit)
-gpgpu_runtime_stat                   500 # display runtime statistics such as dram utilization {<freq>:<flag>}
-liveness_message_freq                    1 # Minimum number of seconds between simulation liveness messages (0 = always print)
-gpgpu_compute_capability_major                    7 # Major compute capability version number
-gpgpu_compute_capability_minor                    0 # Minor compute capability version number
-gpgpu_flush_l1_cache                    1 # Flush L1 cache at the end of each kernel call
-gpgpu_flush_l2_cache                    0 # Flush L2 cache at the end of each kernel call
-gpgpu_deadlock_detect                    1 # Stop the simulation at deadlock (1=on (default), 0=off)
-gpgpu_ptx_instruction_classification                    0 # if enabled will classify ptx instruction types per kernel (Max 255 kernels now)
-gpgpu_ptx_sim_mode                     0 # Select between Performance (default) or Functional simulation (1)
-gpgpu_clock_domains 1132.0:1132.0:1132.0:850.0 # Clock Domain Frequencies in MhZ {<Core Clock>:<ICNT Clock>:<L2 Clock>:<DRAM Clock>}
-gpgpu_max_concurrent_kernel                    8 # maximum kernels that can run concurrently on GPU
-gpgpu_cflog_interval                    0 # Interval between each snapshot in control flow logger
-visualizer_enabled               200f3ff8827e85c83ff3eefb99f59c8c  /home/pli11/Videos/parboil_benchmark/parboil/benchmarks/lbm/build/nvm_default/lbm
Extracting PTX file and ptxas options    1: lbm.1.sm_70.ptx -arch=sm_70
Extracting PTX file and ptxas options    2: lbm.2.sm_70.ptx -arch=sm_70
      0 # Turn on visualizer output (1=On, 0=Off)
-visualizer_outputfile                 NULL # Specifies the output log file for visualizer
-visualizer_zlevel                      6 # Compression level of the visualizer output log (0=no comp, 9=highest)
-gpgpu_stack_size_limit                 1024 # GPU thread stack size
-gpgpu_heap_size_limit              8388608 # GPU malloc heap size 
-gpgpu_runtime_sync_depth_limit                    2 # GPU device runtime synchronize depth
-gpgpu_runtime_pending_launch_count_limit                 2048 # GPU device runtime pending launch count
-trace_enabled                          0 # Turn on traces
-trace_components                    none # comma seperated list of traces to enable. Complete list found in trace_streams.tup. Default none
-trace_sampling_core                    0 # The core which is printed using CORE_DPRINTF. Default 0
-trace_sampling_memory_partition                   -1 # The memory partition which is printed using MEMPART_DPRINTF. Default -1 (i.e. all)
-enable_ptx_file_line_stats                    1 # Turn on PTX source line statistic profiling. (1 = On)
-ptx_line_stats_filename gpgpu_inst_stats.txt # Output file for PTX source line statistics.
-gpgpu_kernel_launch_latency                 5000 # Kernel launch latency in cycles. Default: 0
-gpgpu_cdp_enabled                      0 # Turn on CDP
-gpgpu_TB_launch_latency                    0 # thread block launch latency in cycles. Default: 0
DRAM Timing Options:
nbk                                    16 # number of banks
CCD                                     1 # column to column delay
RRD                                     3 # minimal delay between activation of rows in different banks
RCD                                    12 # row to column delay
RAS                                    28 # time needed to activate row
RP                                     12 # time needed to precharge (deactivate) row
RC                                     40 # row cycle time
CDLR                                    3 # switching from write to read (changes tWTR)
WR                                     10 # last data-in to row precharge
CL                                     12 # CAS latency
WL                                      2 # Write latency
nbkgrp                                  4 # number of bank groups
CCDL                                    2 # column to column delay between accesses to different bank groups
RTPL                                    3 # read to precharge delay between accesses to different bank groups
Total number of memory sub partition = 64
addr_dec_mask[CHIP]  = 0000000000001f00 	high:13 low:8
addr_dec_mask[BK]    = 00000000000e2000 	high:20 low:13
addr_dec_mask[ROW]   = 00000001fff00000 	high:33 low:20
addr_dec_mask[COL]   = 000000000001c0ff 	high:17 low:0
addr_dec_mask[BURST] = 000000000000001f 	high:5 low:0
sub_partition_id_mask = 0000000000002000
GPGPU-Sim uArch: clock freqs: 1132000000.000000:1132000000.000000:1132000000.000000:850000000.000000
GPGPU-Sim uArch: clock periods: 0.00000000088339222615:0.00000000088339222615:0.00000000088339222615:0.00000000117647058824
*** Initializing Memory Statistics ***
GPGPU-Sim uArch: performance model initialization complete.
self exe links to: /home/pli11/Videos/parboil_benchmark/parboil/benchmarks/lbm/build/nvm_default/lbm
self exe links to: /home/pli11/Videos/parboil_benchmark/parboil/benchmarks/lbm/build/nvm_default/lbm
10.1
GPGPU-Sim PTX: __cudaRegisterFatBinary, fat_cubin_handle = 1, filename=default
self exe links to: /home/pli11/Videos/parboil_benchmark/parboil/benchmarks/lbm/build/nvm_default/lbm
Running md5sum using "md5sum /home/pli11/Videos/parboil_benchmark/parboil/benchmarks/lbm/build/nvm_default/lbm "
self exe links to: /home/pli11/Videos/parboil_benchmark/parboil/benchmarks/lbm/build/nvm_default/lbm
Extracting specific PTX file named lbm.1.sm_70.ptx 
Extracting specific PTX file named lbm.2.sm_70.ptx 
self exe links to: /home/pli11/Videos/parboil_benchmark/parboil/benchmarks/lbm/build/nvm_default/lbm
self exe links to: /home/pli11/Videos/parboil_benchmark/parboil/benchmarks/lbm/build/nvm_default/lbm
10.1
GPGPU-Sim PTX: __cudaRegisterFatBinary, fat_cubin_handle = 2, filename=default
GPGPU-Sim PTX: __cudaRegisterFunction _Z32performStreamCollide_kernel_nvm2PfS_ : hostFun 0x0x405bab, fat_cubin_handle = 2
GPGPU-Sim PTX: Parsing lbm.1.sm_70.ptx
GPGPU-Sim PTX: finished parsing EMBEDDED .ptx file lbm.1.sm_70.ptx
GPGPU-Sim PTX: Parsing lbm.2.sm_70.ptx
GPGPU-Sim PTX: allocating global region for "NVM_log" from 0x100 to 0x4000100 (global memory space)
GPGPU-Sim PTX: allocating global region for "NVM_flag" from 0x4000100 to 0x4400100 (global memory space)
GPGPU-Sim PTX: instruction assembly for function '_Z32performStreamCollide_kernel_nvmgPfS_'...   done.
GPGPU-Sim PTX: instruction assembly for function '_Z32performStreamCollide_kernel_nvmiPfS_'...   done.
GPGPU-Sim PTX: instruction assembly for function '_Z32performStreamCollide_kernel_nvm3PfS_'...   done.
GPGPU-Sim PTX: instruction assembly for function '_Z32performStreamCollide_kernel_nvm4PfS_'...   done.
GPGPU-Sim PTX: instruction assembly for function '_Z32performStreamCollide_kernel_nvm5PfS_'...   done.
GPGPU-Sim PTX: instruction assembly for function '_Z32performStreamCollide_kernel_nvm6PfS_'...   done.
GPGPU-Sim PTX: instruction assembly for function '_Z27performStreamCollide_kernelPfS_'...   done.
GPGPU-Sim PTX: instruction assembly for function '_Z32performStreamCollide_kernel_nvmoPfS_'...   done.
GPGPU-Sim PTX: instruction assembly for function '_Z32performStreamCollide_kernel_nvmwPfS_'...   done.
GPGPU-Sim PTX: instruction assembly for function '_Z32performStreamCollide_kernel_nvmqPfS_'...   done.
GPGPU-Sim PTX: instruction assembly for function '_Z32performStreamCollide_kernel_nvmuPfS_'...   done.
GPGPU-Sim PTX: instruction assembly for function '_Z32performStreamCollide_kernel_nvmbPfS_'...   done.
GPGPU-Sim PTX: instruction assembly for function '_Z32performStreamCollide_kernel_nvmjPfS_'...   done.
GPGPU-Sim PTX: instruction assembly for function '_Z32performStreamCollide_kernel_nvmdPfS_'...   done.
GPGPU-Sim PTX: instruction assembly for function '_Z32performStreamCollide_kernel_nvmlPfS_'...   done.
GPGPU-Sim PTX: instruction assembly for function '_Z32performStreamCollide_kernel_nvm1PfS_'...   done.
GPGPU-Sim PTX: instruction assembly for function '_Z32performStreamCollide_kernel_nvm2PfS_'...   done.
GPGPU-Sim PTX: finished parsing EMBEDDED .ptx file lbm.2.sm_70.ptx
GPGPU-Sim PTX: loading globals with explicit initializers... 
GPGPU-Sim PTX: finished loading globals (0 bytes total).
GPGPU-Sim PTX: loading constants with explicit initializers...  done.
GPGPU-Sim PTX: Loading PTXInfo from lbm.1.sm_70.ptx
GPGPU-Sim PTX: Loading PTXInfo from lbm.2.sm_70.ptx
GPGPU-Sim PTX: Kernel '_Z32performStreamCollide_kernel_nvm2PfS_' : regs=44, lmem=0, smem=0, cmem=368
GPGPU-Sim PTX: Kernel '_Z32performStreamCollide_kernel_nvm1PfS_' : regs=44, lmem=0, smem=0, cmem=368
GPGPU-Sim PTX: Kernel '_Z32performStreamCollide_kernel_nvmlPfS_' : regs=40, lmem=0, smem=0, cmem=368
GPGPU-Sim PTX: Kernel '_Z32performStreamCollide_kernel_nvmdPfS_' : regs=40, lmem=0, smem=0, cmem=368
GPGPU-Sim PTX: Kernel '_Z32performStreamCollide_kernel_nvmjPfS_' : regs=40, lmem=0, smem=0, cmem=368
GPGPU-Sim PTX: Kernel '_Z32performStreamCollide_kernel_nvmbPfS_' : regs=40, lmem=0, smem=0, cmem=368
GPGPU-Sim PTX: Kernel '_Z32performStreamCollide_kernel_nvmuPfS_' : regs=40, lmem=0, smem=0, cmem=368
GPGPU-Sim PTX: Kernel '_Z32performStreamCollide_kernel_nvmqPfS_' : regs=40, lmem=0, smem=0, cmem=368
GPGPU-Sim PTX: Kernel '_Z32performStreamCollide_kernel_nvmwPfS_' : regs=40, lmem=0, smem=0, cmem=368
GPGPU-Sim PTX: Kernel '_Z32performStreamCollide_kernel_nvmoPfS_' : regs=40, lmem=0, smem=0, cmem=368
GPGPU-Sim PTX: Kernel '_Z27performStreamCollide_kernelPfS_' : regs=40, lmem=0, smem=0, cmem=368
GPGPU-Sim PTX: Kernel '_Z32performStreamCollide_kernel_nvm6PfS_' : regs=44, lmem=0, smem=0, cmem=368
GPGPU-Sim PTX: Kernel '_Z32performStreamCollide_kernel_nvm5PfS_' : regs=44, lmem=0, smem=0, cmem=368
GPGPU-Sim PTX: Kernel '_Z32performStreamCollide_kernel_nvm4PfS_' : regs=56, lmem=0, smem=0, cmem=368
GPGPU-Sim PTX: Kernel '_Z32performStreamCollide_kernel_nvm3PfS_' : regs=56, lmem=0, smem=0, cmem=368
GPGPU-Sim PTX: Kernel '_Z32performStreamCollide_kernel_nvmiPfS_' : regs=48, lmem=0, smem=0, cmem=368
GPGPU-Sim PTX: Kernel '_Z32performStreamCollide_kernel_nvmgPfS_' : regs=48, lmem=0, smem=0, cmem=368
GPGPU-Sim PTX: __cudaRegisterFunction _Z32performStreamCollide_kernel_nvm1PfS_ : hostFun 0x0x405a6b, fat_cubin_handle = 2
GPGPU-Sim PTX: __cudaRegisterFunction _Z32performStreamCollide_kernel_nvmlPfS_ : hostFun 0x0x40592b, fat_cubin_handle = 2
GPGPU-Sim PTX: __cudaRegisterFunction _Z32performStreamCollide_kernel_nvmdPfS_ : hostFun 0x0x4057eb, fat_cubin_handle = 2
GPGPU-Sim PTX: __cudaRegisterFunction _Z32performStreamCollide_kernel_nvmjPfS_ : hostFun 0x0x4056ab, fat_cubin_handle = 2
GPGPU-Sim PTX: __cudaRegisterFunction _Z32performStreamCollide_kernel_nvmbPfS_ : hostFun 0x0x40556b, fat_cubin_handle = 2
GPGPU-Sim PTX: __cudaRegisterFunction _Z32performStreamCollide_kernel_nvmuPfS_ : hostFun 0x0x40542b, fat_cubin_handle = 2
GPGPU-Sim PTX: __cudaRegisterFunction _Z32performStreamCollide_kernel_nvmqPfS_ : hostFun 0x0x4052eb, fat_cubin_handle = 2
GPGPU-Sim PTX: __cudaRegisterFunction _Z32performStreamCollide_kernel_nvmwPfS_ : hostFun 0x0x4051ab, fat_cubin_handle = 2
GPGPU-Sim PTX: __cudaRegisterFunction _Z32performStreamCollide_kernel_nvmoPfS_ : hostFun 0x0x40506b, fat_cubin_handle = 2
GPGPU-Sim PTX: __cudaRegisterFunction _Z27performStreamCollide_kernelPfS_ : hostFun 0x0x404f2b, fat_cubin_handle = 2
GPGPU-Sim PTX: __cudaRegisterFunction _Z32performStreamCollide_kernel_nvm6PfS_ : hostFun 0x0x404deb, fat_cubin_handle = 2
GPGPU-Sim PTX: __cudaRegisterFunction _Z32performStreamCollide_kernel_nvm5PfS_ : hostFun 0x0x404cab, fat_cubin_handle = 2
GPGPU-Sim PTX: __cudaRegisterFunction _Z32performStreamCollide_kernel_nvm4PfS_ : hostFun 0x0x404b6b, fat_cubin_handle = 2
GPGPU-Sim PTX: __cudaRegisterFunction _Z32performStreamCollide_kernel_nvm3PfS_ : hostFun 0x0x404a2b, fat_cubin_handle = 2
GPGPU-Sim PTX: __cudaRegisterFunction _Z32performStreamCollide_kernel_nvmiPfS_ : hostFun 0x0x4048eb, fat_cubin_handle = 2
GPGPU-Sim PTX: __cudaRegisterFunction _Z32performStreamCollide_kernel_nvmgPfS_ : hostFun 0x0x4047ab, fat_cubin_handle = 2
GPGPU-Sim PTX: __cudaRegisterVar: hostVar = 0x60f380; deviceAddress = NVM_log; deviceName = NVM_log
GPGPU-Sim PTX: __cudaRegisterVar: Registering const memory space of 67108864 bytes
GPGPU-Sim PTX registering global NVM_log hostVar to name mapping
GPGPU-Sim PTX: __cudaRegisterVar: hostVar = 0x460f380; deviceAddress = NVM_flag; deviceName = NVM_flag
GPGPU-Sim PTX: __cudaRegisterVar: Registering const memory space of 4194304 bytes
GPGPU-Sim PTX registering global NVM_flag hostVar to name mapping
LBM_allocateGrid: allocated 185.2 MByte
MAIN_printInfo:
	grid size      : 120 x 120 x 150 = 2.16 * 10^6 Cells
	nTimeSteps     : 3000
	result file    : /home/pli11/Videos/parboil_benchmark/parboil/benchmarks/lbm/run/long/reference.dat
	action         : store
	simulation type: lid-driven cavity
	obstacle file  : /home/pli11/Videos/parboil_benchmark/parboil/datasets/lbm/long/input/120_120_150_ldc.of

LBM_allocateGrid: allocated 185.2 MByte
LBM_allocateGrid: allocated 185.2 MByte
LBM_showGridStatistics:
	nObstacleCells:  343321 nAccelCells:   26912 nFluidCells: 1789767
	minRho:   1.0000 maxRho:   1.0000 mass: 2.160000e+06
	minU: 0.000000e+00 maxU: 0.000000e+00

event update
GPGPU-Sim: synchronize waiting for inactive GPU simulation
GPGPU-Sim API: Stream Manager State
GPGPU-Sim: detected inactive GPU simulation thread
GPGPU-Sim PTX: Setting up arguments for 8 bytes starting at 0x7ffed48ca608..
GPGPU-Sim PTX: Setting up arguments for 8 bytes starting at 0x7ffed48ca600..

GPGPU-Sim PTX: cudaLaunch for 0x0x405bab (mode=performance simulation) on stream 0
GPGPU-Sim PTX: finding reconvergence points for '_Z32performStreamCollide_kernel_nvm2PfS_'...
GPGPU-Sim PTX: Finding dominators for '_Z32performStreamCollide_kernel_nvm2PfS_'...
GPGPU-Sim PTX: Finding immediate dominators for '_Z32performStreamCollide_kernel_nvm2PfS_'...
GPGPU-Sim PTX: Finding postdominators for '_Z32performStreamCollide_kernel_nvm2PfS_'...
GPGPU-Sim PTX: Finding immediate postdominators for '_Z32performStreamCollide_kernel_nvm2PfS_'...
GPGPU-Sim PTX: pre-decoding instructions for '_Z32performStreamCollide_kernel_nvm2PfS_'...
GPGPU-Sim PTX: reconvergence points for _Z32performStreamCollide_kernel_nvm2PfS_...
GPGPU-Sim PTX:  1 (potential) branch divergence @  PC=0xa7d8 (lbm.2.sm_70.ptx:6919) @%p1 bra BB16_1;
GPGPU-Sim PTX:    immediate post dominator      @  PC=0xad70 (lbm.2.sm_70.ptx:7104) cvta.to.global.u64 %rd6, %rd1;
GPGPU-Sim PTX:  2 (potential) branch divergence @  PC=0xa7e0 (lbm.2.sm_70.ptx:6920) bra.uni BB16_2;
GPGPU-Sim PTX:    immediate post dominator      @  PC=0xa838 (lbm.2.sm_70.ptx:6935) add.f32 %f58, %f221, %f219;
GPGPU-Sim PTX:  3 (potential) branch divergence @  PC=0xa830 (lbm.2.sm_70.ptx:6932) bra.uni BB16_3;
GPGPU-Sim PTX:    immediate post dominator      @  PC=0xad70 (lbm.2.sm_70.ptx:7104) cvta.to.global.u64 %rd6, %rd1;
GPGPU-Sim PTX:  4 (potential) branch divergence @  PC=0xae68 (lbm.2.sm_70.ptx:7135) @%p3 bra BB16_5;
GPGPU-Sim PTX:    immediate post dominator      @  PC=0xae88 (lbm.2.sm_70.ptx:7145) membar.gl;
GPGPU-Sim PTX: ... end of reconvergence points for _Z32performStreamCollide_kernel_nvm2PfS_
GPGPU-Sim PTX: ... done pre-decoding instructions for '_Z32performStreamCollide_kernel_nvm2PfS_'.
GPGPU-Sim PTX: pushing kernel '_Z32performStreamCollide_kernel_nvm2PfS_' to stream 0, gridDim= (120,150,1) blockDim = (120,1,1) 
GPGPU-Sim uArch: Shader 0 bind to kernel 1 '_Z32performStreamCollide_kernel_nvm2PfS_'
GPGPU-Sim uArch: CTA/core = 11, limited by: regs
GPGPU-Sim: Reconfigure L1 cache to 128KB
GPGPU-Sim uArch: Shader 1 bind to kernel 1 '_Z32performStreamCollide_kernel_nvm2PfS_'
GPGPU-Sim uArch: Shader 2 bind to kernel 1 '_Z32performStreamCollide_kernel_nvm2PfS_'
GPGPU-Sim uArch: Shader 3 bind to kernel 1 '_Z32performStreamCollide_kernel_nvm2PfS_'
GPGPU-Sim uArch: Shader 4 bind to kernel 1 '_Z32performStreamCollide_kernel_nvm2PfS_'
GPGPU-Sim uArch: Shader 5 bind to kernel 1 '_Z32performStreamCollide_kernel_nvm2PfS_'
GPGPU-Sim uArch: Shader 6 bind to kernel 1 '_Z32performStreamCollide_kernel_nvm2PfS_'
GPGPU-Sim uArch: Shader 7 bind to kernel 1 '_Z32performStreamCollide_kernel_nvm2PfS_'
GPGPU-Sim uArch: Shader 8 bind to kernel 1 '_Z32performStreamCollide_kernel_nvm2PfS_'
GPGPU-Sim uArch: Shader 9 bind to kernel 1 '_Z32performStreamCollide_kernel_nvm2PfS_'
GPGPU-Sim uArch: Shader 10 bind to kernel 1 '_Z32performStreamCollide_kernel_nvm2PfS_'
GPGPU-Sim uArch: Shader 11 bind to kernel 1 '_Z32performStreamCollide_kernel_nvm2PfS_'
GPGPU-Sim uArch: Shader 12 bind to kernel 1 '_Z32performStreamCollide_kernel_nvm2PfS_'
GPGPU-Sim uArch: Shader 13 bind to kernel 1 '_Z32performStreamCollide_kernel_nvm2PfS_'
GPGPU-Sim uArch: Shader 14 bind to kernel 1 '_Z32performStreamCollide_kernel_nvm2PfS_'
GPGPU-Sim uArch: Shader 15 bind to kernel 1 '_Z32performStreamCollide_kernel_nvm2PfS_'
GPGPU-Sim uArch: Shader 16 bind to kernel 1 '_Z32performStreamCollide_kernel_nvm2PfS_'
GPGPU-Sim uArch: Shader 17 bind to kernel 1 '_Z32performStreamCollide_kernel_nvm2PfS_'
GPGPU-Sim uArch: Shader 18 bind to kernel 1 '_Z32performStreamCollide_kernel_nvm2PfS_'
GPGPU-Sim uArch: Shader 19 bind to kernel 1 '_Z32performStreamCollide_kernel_nvm2PfS_'
GPGPU-Sim uArch: Shader 20 bind to kernel 1 '_Z32performStreamCollide_kernel_nvm2PfS_'
GPGPU-Sim uArch: Shader 21 bind to kernel 1 '_Z32performStreamCollide_kernel_nvm2PfS_'
GPGPU-Sim uArch: Shader 22 bind to kernel 1 '_Z32performStreamCollide_kernel_nvm2PfS_'
GPGPU-Sim uArch: Shader 23 bind to kernel 1 '_Z32performStreamCollide_kernel_nvm2PfS_'
GPGPU-Sim uArch: Shader 24 bind to kernel 1 '_Z32performStreamCollide_kernel_nvm2PfS_'
GPGPU-Sim uArch: Shader 25 bind to kernel 1 '_Z32performStreamCollide_kernel_nvm2PfS_'
GPGPU-Sim uArch: Shader 26 bind to kernel 1 '_Z32performStreamCollide_kernel_nvm2PfS_'
GPGPU-Sim uArch: Shader 27 bind to kernel 1 '_Z32performStreamCollide_kernel_nvm2PfS_'
GPGPU-Sim uArch: Shader 28 bind to kernel 1 '_Z32performStreamCollide_kernel_nvm2PfS_'
GPGPU-Sim uArch: Shader 29 bind to kernel 1 '_Z32performStreamCollide_kernel_nvm2PfS_'
GPGPU-Sim uArch: Shader 30 bind to kernel 1 '_Z32performStreamCollide_kernel_nvm2PfS_'
GPGPU-Sim uArch: Shader 31 bind to kernel 1 '_Z32performStreamCollide_kernel_nvm2PfS_'
GPGPU-Sim uArch: Shader 32 bind to kernel 1 '_Z32performStreamCollide_kernel_nvm2PfS_'
GPGPU-Sim uArch: Shader 33 bind to kernel 1 '_Z32performStreamCollide_kernel_nvm2PfS_'
GPGPU-Sim uArch: Shader 34 bind to kernel 1 '_Z32performStreamCollide_kernel_nvm2PfS_'
GPGPU-Sim uArch: Shader 35 bind to kernel 1 '_Z32performStreamCollide_kernel_nvm2PfS_'
GPGPU-Sim uArch: Shader 36 bind to kernel 1 '_Z32performStreamCollide_kernel_nvm2PfS_'
GPGPU-Sim uArch: Shader 37 bind to kernel 1 '_Z32performStreamCollide_kernel_nvm2PfS_'
GPGPU-Sim uArch: Shader 38 bind to kernel 1 '_Z32performStreamCollide_kernel_nvm2PfS_'
GPGPU-Sim uArch: Shader 39 bind to kernel 1 '_Z32performStreamCollide_kernel_nvm2PfS_'
GPGPU-Sim uArch: Shader 40 bind to kernel 1 '_Z32performStreamCollide_kernel_nvm2PfS_'
GPGPU-Sim uArch: Shader 41 bind to kernel 1 '_Z32performStreamCollide_kernel_nvm2PfS_'
GPGPU-Sim uArch: Shader 42 bind to kernel 1 '_Z32performStreamCollide_kernel_nvm2PfS_'
GPGPU-Sim uArch: Shader 43 bind to kernel 1 '_Z32performStreamCollide_kernel_nvm2PfS_'
GPGPU-Sim uArch: Shader 44 bind to kernel 1 '_Z32performStreamCollide_kernel_nvm2PfS_'
GPGPU-Sim uArch: Shader 45 bind to kernel 1 '_Z32performStreamCollide_kernel_nvm2PfS_'
GPGPU-Sim uArch: Shader 46 bind to kernel 1 '_Z32performStreamCollide_kernel_nvm2PfS_'
GPGPU-Sim uArch: Shader 47 bind to kernel 1 '_Z32performStreamCollide_kernel_nvm2PfS_'
GPGPU-Sim uArch: Shader 48 bind to kernel 1 '_Z32performStreamCollide_kernel_nvm2PfS_'
GPGPU-Sim uArch: Shader 49 bind to kernel 1 '_Z32performStreamCollide_kernel_nvm2PfS_'
GPGPU-Sim uArch: Shader 50 bind to kernel 1 '_Z32performStreamCollide_kernel_nvm2PfS_'
GPGPU-Sim uArch: Shader 51 bind to kernel 1 '_Z32performStreamCollide_kernel_nvm2PfS_'
GPGPU-Sim uArch: Shader 52 bind to kernel 1 '_Z32performStreamCollide_kernel_nvm2PfS_'
GPGPU-Sim uArch: Shader 53 bind to kernel 1 '_Z32performStreamCollide_kernel_nvm2PfS_'
GPGPU-Sim uArch: Shader 54 bind to kernel 1 '_Z32performStreamCollide_kernel_nvm2PfS_'
GPGPU-Sim uArch: Shader 55 bind to kernel 1 '_Z32performStreamCollide_kernel_nvm2PfS_'
GPGPU-Sim uArch: Shader 56 bind to kernel 1 '_Z32performStreamCollide_kernel_nvm2PfS_'
GPGPU-Sim uArch: Shader 57 bind to kernel 1 '_Z32performStreamCollide_kernel_nvm2PfS_'
GPGPU-Sim uArch: Shader 58 bind to kernel 1 '_Z32performStreamCollide_kernel_nvm2PfS_'
GPGPU-Sim uArch: Shader 59 bind to kernel 1 '_Z32performStreamCollide_kernel_nvm2PfS_'
GPGPU-Sim uArch: Shader 60 bind to kernel 1 '_Z32performStreamCollide_kernel_nvm2PfS_'
GPGPU-Sim uArch: Shader 61 bind to kernel 1 '_Z32performStreamCollide_kernel_nvm2PfS_'
GPGPU-Sim uArch: Shader 62 bind to kernel 1 '_Z32performStreamCollide_kernel_nvm2PfS_'
GPGPU-Sim uArch: Shader 63 bind to kernel 1 '_Z32performStreamCollide_kernel_nvm2PfS_'
GPGPU-Sim uArch: Shader 64 bind to kernel 1 '_Z32performStreamCollide_kernel_nvm2PfS_'
GPGPU-Sim uArch: Shader 65 bind to kernel 1 '_Z32performStreamCollide_kernel_nvm2PfS_'
GPGPU-Sim uArch: Shader 66 bind to kernel 1 '_Z32performStreamCollide_kernel_nvm2PfS_'
GPGPU-Sim uArch: Shader 67 bind to kernel 1 '_Z32performStreamCollide_kernel_nvm2PfS_'
GPGPU-Sim uArch: Shader 68 bind to kernel 1 '_Z32performStreamCollide_kernel_nvm2PfS_'
GPGPU-Sim uArch: Shader 69 bind to kernel 1 '_Z32performStreamCollide_kernel_nvm2PfS_'
GPGPU-Sim uArch: Shader 70 bind to kernel 1 '_Z32performStreamCollide_kernel_nvm2PfS_'
GPGPU-Sim uArch: Shader 71 bind to kernel 1 '_Z32performStreamCollide_kernel_nvm2PfS_'
GPGPU-Sim uArch: Shader 72 bind to kernel 1 '_Z32performStreamCollide_kernel_nvm2PfS_'
GPGPU-Sim uArch: Shader 73 bind to kernel 1 '_Z32performStreamCollide_kernel_nvm2PfS_'
GPGPU-Sim uArch: Shader 74 bind to kernel 1 '_Z32performStreamCollide_kernel_nvm2PfS_'
GPGPU-Sim uArch: Shader 75 bind to kernel 1 '_Z32performStreamCollide_kernel_nvm2PfS_'
GPGPU-Sim uArch: Shader 76 bind to kernel 1 '_Z32performStreamCollide_kernel_nvm2PfS_'
GPGPU-Sim uArch: Shader 77 bind to kernel 1 '_Z32performStreamCollide_kernel_nvm2PfS_'
GPGPU-Sim uArch: Shader 78 bind to kernel 1 '_Z32performStreamCollide_kernel_nvm2PfS_'
GPGPU-Sim uArch: Shader 79 bind to kernel 1 '_Z32performStreamCollide_kernel_nvm2PfS_'
kernel_name = _Z32performStreamCollide_kernel_nvm2PfS_ 
kernel_launch_uid = 1 
gpu_sim_cycle = 87522
gpu_sim_insn = 40058980
gpu_ipc =     457.7018
gpu_tot_sim_cycle = 87522
gpu_tot_sim_insn = 40058980
gpu_tot_ipc =     457.7018
gpu_tot_issued_cta = 1880
gpu_occupancy = 65.4097% 
gpu_tot_occupancy = 65.4097% 
max_total_param_size = 0
gpu_stall_dramfull = 3032516
gpu_stall_icnt2sh    = 0
partiton_level_parallism =      14.8432
partiton_level_parallism_total  =      14.8432
partiton_level_parallism_util =      16.5474
partiton_level_parallism_util_total  =      16.5474
L2_BW  =     531.4169 GB/Sec
L2_BW_total  =     531.4169 GB/Sec
gpu_total_sim_rate=52160
############## bottleneck_stats #############
cycles: core 87522, icnt 87522, l2 87522, dram 65719
gpu_ipc	457.702
gpu_tot_issued_cta = 1880, average cycles = 47
n_dram_writes	 0, n_dram_reads	 0
n_GLOBAL_ACC_R	 511013 
n_LOCAL_ACC_R	 0 
n_CONST_ACC_R	 0 
n_TEXTURE_ACC_R	 0 
n_GLOBAL_ACC_W	 0 
n_LOCAL_ACC_W	 0 
n_L1_WRBK_ACC	 0 
n_L2_WRBK_ACC	 146157 
n_L1_WR_ALLOC_R	 0 
n_L2_WR_ALLOC_R	 0 

n_sm	 80, n_schedulers	 4
scheduler util	0.050	80
L1D data util	0.550	80	0.624	56
L1D tag util	0.605	80	0.676	42
L2 data util	0.373	64	0.405	5
L2 tag util	0.167	64	0.185	32
n_l2_access	 937281
icnt s2m util	0.000	0	0.000	32	flits per packet: -nan
icnt m2s util	0.000	0	0.000	32	flits per packet: -nan
sum=0
n_mem	 32
dram util	0.520	32	0.551	12

latency_l2_hit:	124609898, num_l2_reqs:	32161
L2 hit latency:	3874
latency_dram:	-518014849, num_dram_reqs:	890082
DRAM latency:	4243

n_reg	65536, n_smem	98304, n_thread	2048, n_tb	32
reg file	0.945
smem size	0.000
thread slot	0.688
TB slot    	0.344
L1I tag util	0.102	80	0.116	56

n_mem_pipe	1, n_sp_pipe	4, n_sfu_pipe	4
mem pipe util	0.039	80	0.044	56
sp pipe util	0.046	80	0.053	48
sfu pipe util	0.003	80	0.003	65
ldst mem cycle	0.055	80	0.064	24

smem port	0.000	0

n_reg_bank	16
reg port	0.032	16	0.039	9
L1D tag util	0.605	80	0.676	42
L1D fill util	0.073	80	0.082	24
n_l1d_mshr	4096
L1D mshr util	0.082	80
n_l1d_missq	16
L1D missq util	0.572	80
L1D hit rate	0.000
L1D miss rate	0.227
L1D rsfail rate	0.773
L2 tag util	0.167	64	0.185	32
L2 fill util	0.091	64	0.099	32
n_l2_mshr	192
n_l2_missq	32
L2 mshr util	0.411	64	0.458	60
L2 missq util	0.004	64	0.004	5
L2 hit rate	0.034
L2 miss rate	0.954
L2 rsfail rate	0.012

dram activity	0.915	32	0.925	16

load trans eff	1.000
load trans sz	32.000
load_useful_bytes 17155808, load_transaction_bytes 17155808, icnt_m2s_bytes 0
n_gmem_load_insns 142861, n_gmem_load_accesses 536119
n_smem_access_insn 0, n_smem_accesses 0

tmp_counter/12	0.666

run 0.011, fetch 0.002, sync 0.456, control 0.000, data 0.447, struct 0.085
############ end_bottleneck_stats #############

========= Core cache stats =========
L1I_cache:
	L1I_total_cache_accesses = 0
	L1I_total_cache_misses = 0
	L1I_total_cache_pending_hits = 0
	L1I_total_cache_reservation_fails = 0
L1D_cache:
	L1D_cache_core[0]: Access = 12530, Miss = 12530, Miss_rate = 1.000, Pending_hits = 0, Reservation_fails = 38542
	L1D_cache_core[1]: Access = 12365, Miss = 12365, Miss_rate = 1.000, Pending_hits = 0, Reservation_fails = 45650
	L1D_cache_core[2]: Access = 12434, Miss = 12434, Miss_rate = 1.000, Pending_hits = 0, Reservation_fails = 38086
	L1D_cache_core[3]: Access = 12683, Miss = 12683, Miss_rate = 1.000, Pending_hits = 0, Reservation_fails = 39786
	L1D_cache_core[4]: Access = 12897, Miss = 12897, Miss_rate = 1.000, Pending_hits = 0, Reservation_fails = 38077
	L1D_cache_core[5]: Access = 11813, Miss = 11813, Miss_rate = 1.000, Pending_hits = 0, Reservation_fails = 35514
	L1D_cache_core[6]: Access = 12667, Miss = 12667, Miss_rate = 1.000, Pending_hits = 0, Reservation_fails = 37246
	L1D_cache_core[7]: Access = 11986, Miss = 11986, Miss_rate = 1.000, Pending_hits = 0, Reservation_fails = 40944
	L1D_cache_core[8]: Access = 12138, Miss = 12138, Miss_rate = 1.000, Pending_hits = 0, Reservation_fails = 43801
	L1D_cache_core[9]: Access = 12052, Miss = 12052, Miss_rate = 1.000, Pending_hits = 0, Reservation_fails = 40282
	L1D_cache_core[10]: Access = 11964, Miss = 11964, Miss_rate = 1.000, Pending_hits = 0, Reservation_fails = 44180
	L1D_cache_core[11]: Access = 12218, Miss = 12218, Miss_rate = 1.000, Pending_hits = 0, Reservation_fails = 42219
	L1D_cache_core[12]: Access = 11943, Miss = 11943, Miss_rate = 1.000, Pending_hits = 0, Reservation_fails = 43514
	L1D_cache_core[13]: Access = 11281, Miss = 11281, Miss_rate = 1.000, Pending_hits = 0, Reservation_fails = 40850
	L1D_cache_core[14]: Access = 12383, Miss = 12383, Miss_rate = 1.000, Pending_hits = 0, Reservation_fails = 39683
	L1D_cache_core[15]: Access = 11586, Miss = 11586, Miss_rate = 1.000, Pending_hits = 0, Reservation_fails = 38775
	L1D_cache_core[16]: Access = 10904, Miss = 10904, Miss_rate = 1.000, Pending_hits = 0, Reservation_fails = 39848
	L1D_cache_core[17]: Access = 12758, Miss = 12758, Miss_rate = 1.000, Pending_hits = 0, Reservation_fails = 39817
	L1D_cache_core[18]: Access = 12747, Miss = 12747, Miss_rate = 1.000, Pending_hits = 0, Reservation_fails = 41614
	L1D_cache_core[19]: Access = 13222, Miss = 13222, Miss_rate = 1.000, Pending_hits = 0, Reservation_fails = 36193
	L1D_cache_core[20]: Access = 11313, Miss = 11313, Miss_rate = 1.000, Pending_hits = 0, Reservation_fails = 42320
	L1D_cache_core[21]: Access = 11559, Miss = 11559, Miss_rate = 1.000, Pending_hits = 0, Reservation_fails = 43992
	L1D_cache_core[22]: Access = 11345, Miss = 11345, Miss_rate = 1.000, Pending_hits = 0, Reservation_fails = 43855
	L1D_cache_core[23]: Access = 12884, Miss = 12884, Miss_rate = 1.000, Pending_hits = 0, Reservation_fails = 45354
	L1D_cache_core[24]: Access = 13375, Miss = 13375, Miss_rate = 1.000, Pending_hits = 0, Reservation_fails = 41414
	L1D_cache_core[25]: Access = 12530, Miss = 12530, Miss_rate = 1.000, Pending_hits = 0, Reservation_fails = 41656
	L1D_cache_core[26]: Access = 12552, Miss = 12552, Miss_rate = 1.000, Pending_hits = 0, Reservation_fails = 35468
	L1D_cache_core[27]: Access = 10410, Miss = 10410, Miss_rate = 1.000, Pending_hits = 0, Reservation_fails = 41692
	L1D_cache_core[28]: Access = 11949, Miss = 11949, Miss_rate = 1.000, Pending_hits = 0, Reservation_fails = 41101
	L1D_cache_core[29]: Access = 11956, Miss = 11956, Miss_rate = 1.000, Pending_hits = 0, Reservation_fails = 39911
	L1D_cache_core[30]: Access = 11365, Miss = 11365, Miss_rate = 1.000, Pending_hits = 0, Reservation_fails = 37458
	L1D_cache_core[31]: Access = 11909, Miss = 11909, Miss_rate = 1.000, Pending_hits = 0, Reservation_fails = 36257
	L1D_cache_core[32]: Access = 12164, Miss = 12164, Miss_rate = 1.000, Pending_hits = 0, Reservation_fails = 37632
	L1D_cache_core[33]: Access = 11610, Miss = 11610, Miss_rate = 1.000, Pending_hits = 0, Reservation_fails = 42719
	L1D_cache_core[34]: Access = 12726, Miss = 12726, Miss_rate = 1.000, Pending_hits = 0, Reservation_fails = 36688
	L1D_cache_core[35]: Access = 11682, Miss = 11682, Miss_rate = 1.000, Pending_hits = 0, Reservation_fails = 42076
	L1D_cache_core[36]: Access = 12970, Miss = 12970, Miss_rate = 1.000, Pending_hits = 0, Reservation_fails = 37530
	L1D_cache_core[37]: Access = 12364, Miss = 12364, Miss_rate = 1.000, Pending_hits = 0, Reservation_fails = 42486
	L1D_cache_core[38]: Access = 11566, Miss = 11566, Miss_rate = 1.000, Pending_hits = 0, Reservation_fails = 40722
	L1D_cache_core[39]: Access = 12537, Miss = 12537, Miss_rate = 1.000, Pending_hits = 0, Reservation_fails = 41393
	L1D_cache_core[40]: Access = 12537, Miss = 12537, Miss_rate = 1.000, Pending_hits = 0, Reservation_fails = 36060
	L1D_cache_core[41]: Access = 12563, Miss = 12563, Miss_rate = 1.000, Pending_hits = 0, Reservation_fails = 37763
	L1D_cache_core[42]: Access = 12320, Miss = 12320, Miss_rate = 1.000, Pending_hits = 0, Reservation_fails = 46841
	L1D_cache_core[43]: Access = 12190, Miss = 12190, Miss_rate = 1.000, Pending_hits = 0, Reservation_fails = 46188
	L1D_cache_core[44]: Access = 12266, Miss = 12266, Miss_rate = 1.000, Pending_hits = 0, Reservation_fails = 38582
	L1D_cache_core[45]: Access = 11479, Miss = 11479, Miss_rate = 1.000, Pending_hits = 0, Reservation_fails = 43948
	L1D_cache_core[46]: Access = 12178, Miss = 12178, Miss_rate = 1.000, Pending_hits = 0, Reservation_fails = 42386
	L1D_cache_core[47]: Access = 11267, Miss = 11267, Miss_rate = 1.000, Pending_hits = 0, Reservation_fails = 44391
	L1D_cache_core[48]: Access = 13152, Miss = 13152, Miss_rate = 1.000, Pending_hits = 0, Reservation_fails = 39872
	L1D_cache_core[49]: Access = 11801, Miss = 11801, Miss_rate = 1.000, Pending_hits = 0, Reservation_fails = 40903
	L1D_cache_core[50]: Access = 11629, Miss = 11629, Miss_rate = 1.000, Pending_hits = 0, Reservation_fails = 40903
	L1D_cache_core[51]: Access = 12287, Miss = 12287, Miss_rate = 1.000, Pending_hits = 0, Reservation_fails = 36727
	L1D_cache_core[52]: Access = 12507, Miss = 12507, Miss_rate = 1.000, Pending_hits = 0, Reservation_fails = 42759
	L1D_cache_core[53]: Access = 10573, Miss = 10573, Miss_rate = 1.000, Pending_hits = 0, Reservation_fails = 46542
	L1D_cache_core[54]: Access = 10642, Miss = 10642, Miss_rate = 1.000, Pending_hits = 0, Reservation_fails = 41857
	L1D_cache_core[55]: Access = 12518, Miss = 12518, Miss_rate = 1.000, Pending_hits = 0, Reservation_fails = 38247
	L1D_cache_core[56]: Access = 13647, Miss = 13647, Miss_rate = 1.000, Pending_hits = 0, Reservation_fails = 45514
	L1D_cache_core[57]: Access = 11856, Miss = 11856, Miss_rate = 1.000, Pending_hits = 0, Reservation_fails = 38499
	L1D_cache_core[58]: Access = 10674, Miss = 10674, Miss_rate = 1.000, Pending_hits = 0, Reservation_fails = 44436
	L1D_cache_core[59]: Access = 11486, Miss = 11486, Miss_rate = 1.000, Pending_hits = 0, Reservation_fails = 42868
	L1D_cache_core[60]: Access = 12597, Miss = 12597, Miss_rate = 1.000, Pending_hits = 0, Reservation_fails = 41660
	L1D_cache_core[61]: Access = 12023, Miss = 12023, Miss_rate = 1.000, Pending_hits = 0, Reservation_fails = 43259
	L1D_cache_core[62]: Access = 11967, Miss = 11967, Miss_rate = 1.000, Pending_hits = 0, Reservation_fails = 44355
	L1D_cache_core[63]: Access = 13155, Miss = 13155, Miss_rate = 1.000, Pending_hits = 0, Reservation_fails = 40248
	L1D_cache_core[64]: Access = 12750, Miss = 12750, Miss_rate = 1.000, Pending_hits = 0, Reservation_fails = 39680
	L1D_cache_core[65]: Access = 12809, Miss = 12809, Miss_rate = 1.000, Pending_hits = 0, Reservation_fails = 39077
	L1D_cache_core[66]: Access = 10900, Miss = 10900, Miss_rate = 1.000, Pending_hits = 0, Reservation_fails = 40354
	L1D_cache_core[67]: Access = 12358, Miss = 12358, Miss_rate = 1.000, Pending_hits = 0, Reservation_fails = 36933
	L1D_cache_core[68]: Access = 11026, Miss = 11026, Miss_rate = 1.000, Pending_hits = 0, Reservation_fails = 43079
	L1D_cache_core[69]: Access = 11207, Miss = 11207, Miss_rate = 1.000, Pending_hits = 0, Reservation_fails = 44107
	L1D_cache_core[70]: Access = 11611, Miss = 11611, Miss_rate = 1.000, Pending_hits = 0, Reservation_fails = 44645
	L1D_cache_core[71]: Access = 12132, Miss = 12132, Miss_rate = 1.000, Pending_hits = 0, Reservation_fails = 38996
	L1D_cache_core[72]: Access = 12155, Miss = 12155, Miss_rate = 1.000, Pending_hits = 0, Reservation_fails = 36732
	L1D_cache_core[73]: Access = 11249, Miss = 11249, Miss_rate = 1.000, Pending_hits = 0, Reservation_fails = 45107
	L1D_cache_core[74]: Access = 11822, Miss = 11822, Miss_rate = 1.000, Pending_hits = 0, Reservation_fails = 41024
	L1D_cache_core[75]: Access = 11759, Miss = 11759, Miss_rate = 1.000, Pending_hits = 0, Reservation_fails = 40749
	L1D_cache_core[76]: Access = 12766, Miss = 12766, Miss_rate = 1.000, Pending_hits = 0, Reservation_fails = 42082
	L1D_cache_core[77]: Access = 11025, Miss = 11025, Miss_rate = 1.000, Pending_hits = 0, Reservation_fails = 37431
	L1D_cache_core[78]: Access = 11883, Miss = 11883, Miss_rate = 1.000, Pending_hits = 0, Reservation_fails = 40755
	L1D_cache_core[79]: Access = 11089, Miss = 11089, Miss_rate = 1.000, Pending_hits = 0, Reservation_fails = 39191
	L1D_total_cache_accesses = 963192
	L1D_total_cache_misses = 963192
	L1D_total_cache_miss_rate = 1.0000
	L1D_total_cache_pending_hits = 0
	L1D_total_cache_reservation_fails = 3271095
	L1D_cache_data_port_util = 0.000
	L1D_cache_fill_port_util = 0.077
L1C_cache:
	L1C_total_cache_accesses = 0
	L1C_total_cache_misses = 0
	L1C_total_cache_pending_hits = 0
	L1C_total_cache_reservation_fails = 0
L1T_cache:
	L1T_total_cache_accesses = 0
	L1T_total_cache_misses = 0
	L1T_total_cache_pending_hits = 0
	L1T_total_cache_reservation_fails = 0

Total_core_cache_stats:
	Total_core_cache_stats_breakdown[GLOBAL_ACC_R][HIT] = 0
	Total_core_cache_stats_breakdown[GLOBAL_ACC_R][HIT_RESERVED] = 0
	Total_core_cache_stats_breakdown[GLOBAL_ACC_R][MISS] = 533464
	Total_core_cache_stats_breakdown[GLOBAL_ACC_R][RESERVATION_FAIL] = 1723895
	Total_core_cache_stats_breakdown[GLOBAL_ACC_R][SECTOR_MISS] = 0
	Total_core_cache_stats_breakdown[LOCAL_ACC_R][HIT] = 0
	Total_core_cache_stats_breakdown[LOCAL_ACC_R][HIT_RESERVED] = 0
	Total_core_cache_stats_breakdown[LOCAL_ACC_R][MISS] = 0
	Total_core_cache_stats_breakdown[LOCAL_ACC_R][RESERVATION_FAIL] = 0
	Total_core_cache_stats_breakdown[LOCAL_ACC_R][SECTOR_MISS] = 0
	Total_core_cache_stats_breakdown[CONST_ACC_R][HIT] = 0
	Total_core_cache_stats_breakdown[CONST_ACC_R][HIT_RESERVED] = 0
	Total_core_cache_stats_breakdown[CONST_ACC_R][MISS] = 0
	Total_core_cache_stats_breakdown[CONST_ACC_R][RESERVATION_FAIL] = 0
	Total_core_cache_stats_breakdown[CONST_ACC_R][SECTOR_MISS] = 0
	Total_core_cache_stats_breakdown[TEXTURE_ACC_R][HIT] = 0
	Total_core_cache_stats_breakdown[TEXTURE_ACC_R][HIT_RESERVED] = 0
	Total_core_cache_stats_breakdown[TEXTURE_ACC_R][MISS] = 0
	Total_core_cache_stats_breakdown[TEXTURE_ACC_R][RESERVATION_FAIL] = 0
	Total_core_cache_stats_breakdown[TEXTURE_ACC_R][SECTOR_MISS] = 0
	Total_core_cache_stats_breakdown[GLOBAL_ACC_W][HIT] = 0
	Total_core_cache_stats_breakdown[GLOBAL_ACC_W][HIT_RESERVED] = 0
	Total_core_cache_stats_breakdown[GLOBAL_ACC_W][MISS] = 429728
	Total_core_cache_stats_breakdown[GLOBAL_ACC_W][RESERVATION_FAIL] = 1547200
	Total_core_cache_stats_breakdown[GLOBAL_ACC_W][SECTOR_MISS] = 0
	Total_core_cache_stats_breakdown[LOCAL_ACC_W][HIT] = 0
	Total_core_cache_stats_breakdown[LOCAL_ACC_W][HIT_RESERVED] = 0
	Total_core_cache_stats_breakdown[LOCAL_ACC_W][MISS] = 0
	Total_core_cache_stats_breakdown[LOCAL_ACC_W][RESERVATION_FAIL] = 0
	Total_core_cache_stats_breakdown[LOCAL_ACC_W][SECTOR_MISS] = 0
	Total_core_cache_stats_breakdown[L1_WRBK_ACC][HIT] = 0
	Total_core_cache_stats_breakdown[L1_WRBK_ACC][HIT_RESERVED] = 0
	Total_core_cache_stats_breakdown[L1_WRBK_ACC][MISS] = 0
	Total_core_cache_stats_breakdown[L1_WRBK_ACC][RESERVATION_FAIL] = 0
	Total_core_cache_stats_breakdown[L1_WRBK_ACC][SECTOR_MISS] = 0
	Total_core_cache_stats_breakdown[L2_WRBK_ACC][HIT] = 0
	Total_core_cache_stats_breakdown[L2_WRBK_ACC][HIT_RESERVED] = 0
	Total_core_cache_stats_breakdown[L2_WRBK_ACC][MISS] = 0
	Total_core_cache_stats_breakdown[L2_WRBK_ACC][RESERVATION_FAIL] = 0
	Total_core_cache_stats_breakdown[L2_WRBK_ACC][SECTOR_MISS] = 0
	Total_core_cache_stats_breakdown[INST_ACC_R][HIT] = 0
	Total_core_cache_stats_breakdown[INST_ACC_R][HIT_RESERVED] = 0
	Total_core_cache_stats_breakdown[INST_ACC_R][MISS] = 0
	Total_core_cache_stats_breakdown[INST_ACC_R][RESERVATION_FAIL] = 0
	Total_core_cache_stats_breakdown[INST_ACC_R][SECTOR_MISS] = 0
	Total_core_cache_stats_breakdown[L1_WR_ALLOC_R][HIT] = 0
	Total_core_cache_stats_breakdown[L1_WR_ALLOC_R][HIT_RESERVED] = 0
	Total_core_cache_stats_breakdown[L1_WR_ALLOC_R][MISS] = 0
	Total_core_cache_stats_breakdown[L1_WR_ALLOC_R][RESERVATION_FAIL] = 0
	Total_core_cache_stats_breakdown[L1_WR_ALLOC_R][SECTOR_MISS] = 0
	Total_core_cache_stats_breakdown[L2_WR_ALLOC_R][HIT] = 0
	Total_core_cache_stats_breakdown[L2_WR_ALLOC_R][HIT_RESERVED] = 0
	Total_core_cache_stats_breakdown[L2_WR_ALLOC_R][MISS] = 0
	Total_core_cache_stats_breakdown[L2_WR_ALLOC_R][RESERVATION_FAIL] = 0
	Total_core_cache_stats_breakdown[L2_WR_ALLOC_R][SECTOR_MISS] = 0
	Total_core_cache_stats_breakdown[GLOBAL_ACC_R][TOTAL_ACCESS] = 533464
	Total_core_cache_stats_breakdown[GLOBAL_ACC_W][TOTAL_ACCESS] = 429728

Total_core_cache_fail_stats:
	Total_core_cache_fail_stats_breakdown[GLOBAL_ACC_R][MISS_QUEUE_FULL] = 1723895
	Total_core_cache_fail_stats_breakdown[GLOBAL_ACC_W][MISS_QUEUE_FULL] = 1547200
Shader 0 warp_id issue ditsribution:
warp_id:
0, 1, 2, 3, 4, 5, 6, 7, 8, 9, 10, 11, 12, 13, 14, 15, 16, 17, 18, 19, 20, 21, 22, 23, 24, 25, 26, 27, 28, 29, 30, 31, 32, 33, 34, 35, 36, 37, 38, 39, 40, 41, 42, 43, 
distro:
341, 337, 353, 337, 341, 328, 329, 335, 501, 479, 479, 499, 337, 322, 322, 332, 501, 479, 479, 499, 501, 476, 476, 495, 337, 321, 321, 331, 337, 416, 444, 379, 301, 335, 341, 336, 234, 277, 293, 241, 286, 335, 329, 297, 
gpgpu_n_tot_thrd_icount = 44387456
gpgpu_n_tot_w_icount = 1387108
gpgpu_n_stall_shd_mem = 6305966
gpgpu_n_mem_read_local = 0
gpgpu_n_mem_write_local = 0
gpgpu_n_mem_read_global = 533100
gpgpu_n_mem_write_global = 812171
gpgpu_n_mem_texture = 0
gpgpu_n_mem_const = 0
gpgpu_n_load_insn  = 4272896
gpgpu_n_store_insn = 3162417
gpgpu_n_shmem_insn = 0
gpgpu_n_sstarr_insn = 0
gpgpu_n_tex_insn = 0
gpgpu_n_const_mem_insn = 0
gpgpu_n_param_mem_insn = 448512
gpgpu_n_shmem_bkconflict = 0
gpgpu_n_cache_bkconflict = 0
gpgpu_n_intrawarp_mshr_merge = 0
gpgpu_n_cmem_portconflict = 0
gpgpu_stall_shd_mem[c_mem][resource_stall] = 0
gpgpu_stall_shd_mem[s_mem][bk_conf] = 0
gpgpu_stall_shd_mem[gl_mem][resource_stall] = 3667839
gpgpu_stall_shd_mem[gl_mem][coal_stall] = 376825
gpgpu_stall_shd_mem[gl_mem][data_port_stall] = 0
gpu_reg_bank_conflict_stalls = 0
Warp Occupancy Distribution:
Stall:24887428	W0_Idle:400	W0_Scoreboard:123686	W1:33396	W2:0	W3:0	W4:0	W5:0	W6:0	W7:0	W8:0	W9:0	W10:0	W11:0	W12:0	W13:0	W14:0	W15:0	W16:0	W17:0	W18:0	W19:0	W20:0	W21:0	W22:0	W23:225338	W24:109968	W25:0	W26:0	W27:0	W28:0	W29:0	W30:0	W31:222263	W32:804241
single_issue_nums: WS0:349671	WS1:346238	WS2:349085	WS3:350212	
dual_issue_nums: WS0:0	WS1:0	WS2:0	WS3:0	
traffic_breakdown_coretomem[GLOBAL_ACC_R] = 4264800 {8:533100,}
traffic_breakdown_coretomem[GLOBAL_ACC_W] = 20237432 {8:382794,40:429377,}
traffic_breakdown_memtocore[GLOBAL_ACC_R] = 20408160 {40:510204,}
traffic_breakdown_memtocore[GLOBAL_ACC_W] = 6189472 {8:773684,}
maxmflatency = 18046 
max_icnt2mem_latency = 16665 
maxmrqlatency = 1878 
max_icnt2sh_latency = 266 
averagemflatency = 4305 
avg_icnt2mem_latency = 3353 
avg_mrq_latency = 129 
avg_icnt2sh_latency = 3 
mrq_lat_table:40616 	28658 	10355 	16598 	40346 	115347 	157591 	164167 	66784 	14763 	1156 	0 	0 	0 	0 	0 	0 	0 	0 	0 	0 	0 	0 	0 	0 	0 	0 	0 	0 	0 	0 	0 	
dq_lat_table:0 	0 	0 	0 	0 	0 	0 	0 	0 	0 	0 	0 	0 	0 	0 	0 	0 	0 	0 	0 	0 	0 	0 	0 	0 	0 	0 	0 	0 	0 	0 	0 	
mf_lat_table:0 	0 	0 	0 	0 	0 	0 	0 	1232 	13104 	64847 	519422 	665236 	20016 	14 	0 	0 	0 	0 	0 	0 	0 	0 	0 	0 	0 	0 	0 	0 	0 	0 	0 	
icnt2mem_lat_table:0 	0 	0 	0 	656 	1568 	4336 	12064 	6930 	34406 	180646 	714356 	339474 	4666 	5 	0 	0 	0 	0 	0 	0 	0 	0 	0 	
icnt2sh_lat_table:0 	1069077 	122805 	54999 	25521 	8941 	2084 	438 	6 	0 	0 	0 	0 	0 	0 	0 	0 	0 	0 	0 	0 	0 	0 	0 	
mf_lat_pw_table:0 	0 	0 	0 	0 	0 	0 	0 	0 	2 	2 	42 	118 	0 	0 	0 	0 	0 	0 	0 	0 	0 	0 	0 	0 	0 	0 	0 	0 	0 	0 	0 	
maximum concurrent accesses to same row:
dram[0]:        12         8        16        20        20        20        20        20        20        20        16        12        12        16         8        16 
dram[1]:        11        11        12        12        21        21        21        21        21        21        21        21        14        15         8        14 
dram[2]:        16        12        16        20        20        20        20        20        20        20        18        16        12        16        12        12 
dram[3]:        12        14        12        14        21        21        21        21        21        21        21        21        11        15        11        10 
dram[4]:         9         8        16        20        20        20        20        20        20        20        16        13        12        16        12        16 
dram[5]:         8        11        12        14        21        21        21        21        21        21        21        21        11        15        12        12 
dram[6]:        16         8        16        20        20        20        20        20        20        20        16        16        12        16        12        12 
dram[7]:        15        14        12        14        21        21        21        21        21        21        21        21        11        15        14        15 
dram[8]:        16        12        20        20        20        24        20        20        20        20        16        12        16        16        16        15 
dram[9]:        12        11        15        21        21        21        21        21        21        21        21        21        11        15        10        10 
dram[10]:        16        12        16        20        24        20        20        20        20        20        16        12        12        16        16        12 
dram[11]:        15        11        15        12        21        21        21        21        21        21        21        21        14        15        11        11 
dram[12]:        12        12        16        20        24        20        20        20        20        20        16        12        12        16        16        14 
dram[13]:         8        11        12        12        21        21        21        21        21        21        21        21        14        15        11        11 
dram[14]:        12        12        16        20        20        20        20        20        20        20        16        12        12        16        12        12 
dram[15]:        11        10        12        14        21        21        21        21        21        21        21        21        11        15        11        11 
dram[16]:        12        12        16        20        20        20        20        20        20        20        16        16        12        16        12        12 
dram[17]:        15        14        15        14        21        21        21        21        21        21        21        21        11        15        11        13 
dram[18]:        12        16        16        20        20        24        20        20        20        20        16        12        12        16         8         8 
dram[19]:        12        11        12        12        21        21        21        21        21        21        21        21        11        15        11        11 
dram[20]:        20        16        16        20        20        20        20        20        20        20        16        12        12        16        12        12 
dram[21]:        11        10        12        12        21        21        21        21        21        21        21        21        11        15        11        11 
dram[22]:        12        16        16        20        20        24        20        20        20        20        16        12        12        16        16        12 
dram[23]:        11        14        12        14        21        21        21        21        21        21        21        21        11        15        11        10 
dram[24]:        16        12        16        20        20        20        20        20        20        20        16        12        16        16        16        12 
dram[25]:        11         9        12        12        21        21        21        21        21        21        21        21        11        15        11        11 
dram[26]:        12        12        16        20        20        20        20        20        20        20        16        12        12        16        20        12 
dram[27]:        10        10        12        12        21        21        21        21        21        21        21        21        11        15        11        10 
dram[28]:         8        12        24        20        20        20        20        20        20        20        16        12        12        16        17        10 
dram[29]:        11         8        14        12        21        21        21        21        21        21        21        21        14        15        11        14 
dram[30]:        16        12        16        20        24        20        20        20        20        20        16        12        16        16        12        12 
dram[31]:        11         8        12        12        21        21        21        21        21        21        21        21        11        15         8         8 
maximum service time to same row:
dram[0]:     32623     27501     26506     38661     32534     21103     30580     43570      6545      6602      8000      8080     11908     12941     18323     18252 
dram[1]:     32167     27606     28612     39005     31740     20907     31605     41881      6310      6332      7755      7719     11519     12365     18792     18604 
dram[2]:     37111     36325     43860     38634     35547     42579     44378     43574      6545      6602      8000      8080     11908     12941     18786     18428 
dram[3]:     38956     34949     42349     39252     33878     43576     42981     45342      6310      6332      7755      7719     11519     12365     17689     17347 
dram[4]:     43203     36453     40761     40789     44565     42148     41358     46058      6545      6602      8000      8080     11908     12941     17793     17540 
dram[5]:     43070     35553     41410     40416     40210     42311     40669     46401      6310      6332      7755      7719     11519     12365     18516     17953 
dram[6]:     36163     29230     41057     40380     39818     39897     43787     46036      6545      6602      8000      8080     11908     12941     18495     18176 
dram[7]:     36428     29024     41012     41279     38025     38378     41883     48521      6958      6332      7755      7719     11519     12365     18214     17797 
dram[8]:     38158     31155     41471     39897     37528     42187     43291     44292      6545      6602      8000      8080     11908     12941     18817     18627 
dram[9]:     36219     29447     40971     40765     40812     42213     46470     45995      6310      6332      7755      7719     11519     12365     18585     17990 
dram[10]:     35175     28020     41434     41576     34545     35776     44113     41802      6545      6602      8000      8080     11908     12941     18155     18082 
dram[11]:     34863     28163     41445     41970     36474     35954     43910     45574      6310      6332      7755      7719     11519     12365     18480     18184 
dram[12]:     37380     29789     44139     39409     39280     42591      6205     47790      6545      6602      8000      8080     11908     12941     18668     18300 
dram[13]:     33957     29585     40072     40956     37993     43830     43590     40122      6310      6332      7755      7719     11519     12365     18031     17548 
dram[14]:     34660     31379     39579     38980     30854     42524     41849     34595      6545      6602      8000      8080     11908     12941     18860     18497 
dram[15]:     34231     31197     40265     39585     30343     39660     43147     35132      6310      6332      7755      7719     11519     12365     17527     17231 
dram[16]:     36691     34342     39976     34547     33801     41374     40327     35699      6545      6602      8000      8080     11908     12941     18328     18370 
dram[17]:     35969     34169     40294     35475     34033     45424     42557     37643      6310      6332      7755      7719     11519     12365     17838     18070 
dram[18]:     37452     27779     42976     41616     36802     38788     43406     44119      6545      6602      8000      8080     11908     12941     18663     18882 
dram[19]:     35848     26839     42035     42443     38163     41391     47861     47212      6310      6332      7755      7719     11519     12365     18124     18738 
dram[20]:     37275     29845     41096     40569     40095     40739     46809     46642      6545      6602      8000      8080     11908     12941     18844     18730 
dram[21]:     36476     30083     40823     41307     40647     44054     45461     49720      6310      6332      7755      7719     11519     12365     18347     18392 
dram[22]:     37310     29692     44270     43722     40751     37995     42215     46519      6545      6602      8000      8080     11908     12941     19814     19516 
dram[23]:     35756     29529     42926     42298     40387     40961     42484     46657      6310      6332      7755      7719     11519     12365     18236     19101 
dram[24]:     35100     29167     41405     40641     38839     40976     39138     47320      6545      6602      8000      8080     11908     12941     18758     18910 
dram[25]:     34007     28157     39771     40692     38784     39443     43033     47953      6310      6332      7755      7719     11519     12365     18211     18869 
dram[26]:     39082     33430     41510     40592     37100     41869     43966     43049     10800      6602      8000      8080     11908     12941     18937     18963 
dram[27]:     37118     30074     40603     40455     36868     40694     48014     41830      6310      6332      7755      7719     11519     12365     17766     18160 
dram[28]:     37751     29404     42865     42669     39741     40867     40254      6216      6545      6602      8000      8080     11908     12941     19268     19251 
dram[29]:     32108     29781     40451     33899     32351     31839     43225      5987      6310      6332      7755      7719     11519     12365     18794     18441 
dram[30]:     29867     30186     37787     25499     26616     37344     39267     43790      6660      6602      8000      8080     11908     12941     18663     18829 
dram[31]:     28506     29733     37821     30063     24038     35729     41748     43182      6310      6332      7755      7719     11519     12365     18496     18073 
average row accesses per activate:
dram[0]:  3.261214  3.166240  3.865079  3.901186  5.119318  5.323699  4.709251  4.680672  4.054645  4.104839  3.329980  3.281554  3.188785  3.008711  3.181102  3.153996 
dram[1]:  2.894737  2.870968  3.505836  3.394737  4.732558  4.774567  4.391705  4.288793  3.605333  3.831956  3.281385  3.160569  2.915596  2.852837  2.885714  2.809259 
dram[2]:  3.362360  3.153646  3.991561  3.943548  5.143678  5.104972  4.762332  4.607595  3.914286  4.023622  3.415984  3.408537  3.293103  3.167588  3.376050  3.162476 
dram[3]:  2.892231  2.775120  3.476744  3.434944  4.879518  4.867816  4.551887  4.417040  3.663979  3.704301  3.047431  3.023483  2.880651  2.773356  2.778793  2.824723 
dram[4]:  3.330532  3.254190  4.026906  3.859575  5.425807  5.304348  4.857143  4.777293  3.991979  4.121622  3.414487  3.474227  3.159420  3.102518  3.287169  3.179798 
dram[5]:  2.994595  2.936170  3.817352  3.619658  4.812500  5.019608  4.473430  4.244542  3.899714  3.797814  3.159420  3.081836  2.876812  2.803136  2.912791  2.859615 
dram[6]:  3.407713  3.138107  4.062500  4.004202  5.098901  5.526946  4.826667  4.677966  4.194986  4.044973  3.463618  3.347826  3.309478  3.174312  3.243461  3.197628 
dram[7]:  3.049869  2.897310  3.658634  3.515748  4.620879  4.829545  4.398190  4.391111  3.847025  3.668435  3.198330  3.208678  2.935897  2.819615  2.868173  2.893458 
dram[8]:  3.298592  3.266304  4.078261  4.267606  5.440251  5.720779  4.783186  4.659664  4.124661  4.034391  3.572961  3.450617  3.214418  3.123656  3.195171  3.219959 
dram[9]:  2.934037  2.869231  3.582645  3.637555  4.870370  5.116883  4.650486  4.360000  3.652406  3.712000  3.311015  3.085828  2.897436  2.789842  2.825843  2.871845 
dram[10]:  3.212291  3.108179  3.956897  3.850622  5.532467  5.528302  4.703540  4.816594  3.942257  4.047745  3.397959  3.254864  3.184843  3.186347  3.208835  3.236625 
dram[11]:  2.944904  2.953552  3.532751  3.345238  5.169014  5.084967  4.598039  4.382222  3.669377  3.679045  3.267094  3.137374  2.914855  2.811847  2.868726  2.894325 
dram[12]:  3.387640  3.293948  3.416667  3.972350  4.569620  5.478873  4.780822  4.552301  4.018470  4.018229  3.371373  3.355030  3.155668  3.232775  3.275142  3.243852 
dram[13]:  2.781638  2.824427  3.427984  3.332016  4.944828  4.967320  4.599010  4.247826  3.642473  3.704485  3.230932  3.021442  2.861759  2.786829  2.742593  2.787194 
dram[14]:  3.451524  3.274667  3.944000  3.906250  5.054945  5.135135  4.844749  4.427419  4.005291  3.862595  3.521097  3.273438  3.185529  3.121377  3.323171  3.234252 
dram[15]:  2.821079  2.756501  3.291367  3.414815  4.394737  4.593583  4.483412  4.426009  3.719346  3.600522  3.152577  3.159596  2.847943  2.771870  2.754991  2.715808 
dram[16]:  3.175879  3.280840  3.893939  4.181818  5.032258  5.538462  4.594828  4.787879  4.087432  4.152174  3.510549  3.382000  3.138122  3.212963  3.058932  3.179337 
dram[17]:  2.841849  2.851582  3.320285  3.397004  4.508021  4.767045  4.497630  4.277056  3.620690  3.781421  3.223629  3.033203  2.862319  2.877918  2.829982  2.893536 
dram[18]:  3.179688  3.158311  3.788235  4.000000  4.939891  5.481707  4.485232  4.757576  3.963351  3.908163  3.615217  3.328740  3.161765  3.182994  3.120229  3.185771 
dram[19]:  2.796569  2.775862  3.337079  3.474308  4.593220  4.722543  4.457944  4.223176  3.736264  3.712766  3.197479  2.967681  2.774869  2.771870  2.769653  2.740000 
dram[20]:  3.346561  3.245989  3.919679  4.079498  4.894737  5.436047  4.744589  4.560166  3.868557  3.948849  3.405679  3.304519  3.102888  3.189591  3.271805  3.221116 
dram[21]:  3.030612  2.933673  3.340580  3.447876  4.431579  4.854651  4.413636  4.206008  3.787709  3.590206  3.090909  3.043307  2.885455  2.843137  2.785455  2.853658 
dram[22]:  3.294278  3.198391  4.045643  4.097457  5.311765  5.395349  4.563025  4.638656  4.128342  3.835412  3.507042  3.387674  3.286793  3.213755  3.276768  3.212724 
dram[23]:  2.828010  2.902062  3.486381  3.459144  4.660920  4.820809  4.346847  4.264069  3.737705  3.696000  3.101420  3.221992  2.870036  2.907942  2.823420  2.865530 
dram[24]:  3.428969  3.533333  4.122807  4.029289  5.353659  5.375722  4.698690  4.928889  4.186813  4.034301  3.337255  3.419028  3.301708  3.122486  3.218000  3.245436 
dram[25]:  2.898010  2.853093  3.382576  3.326996  4.710983  4.712644  4.433790  4.272727  3.765027  3.702918  3.141393  3.112000  2.899818  2.778163  2.854717  2.873541 
dram[26]:  3.308743  3.358904  4.131579  4.067227  5.477987  5.634730  4.541667  4.396079  4.037135  3.930591  3.445808  3.346457  3.240809  3.184644  3.325726  3.256098 
dram[27]:  2.836272  2.858612  3.429134  3.417969  4.846626  4.896341  4.456221  4.168067  3.854342  3.628272  3.095618  2.971154  2.709677  2.732082  2.694946  2.743446 
dram[28]:  3.272222  3.283237  3.850427  3.956332  5.306250  5.509804  4.465587  4.649351  3.874693  3.951031  3.393822  3.409274  3.090278  3.153285  3.185185  3.262295 
dram[29]:  2.809278  2.948087  3.582979  3.434959  4.858974  4.973856  4.418605  4.175966  3.968661  3.623377  3.090000  3.061024  2.805944  2.814488  2.806391  2.780075 
dram[30]:  3.293333  3.444118  3.876494  3.977478  5.639241  5.122093  4.676724  4.481633  3.847118  3.940874  3.436992  3.279297  3.206642  3.088968  3.222441  3.179283 
dram[31]:  2.771429  2.869674  3.261029  3.400778  4.664773  4.582417  4.443439  4.191489  3.560724  3.590206  3.013726  3.000000  2.794783  2.750000  2.696649  2.714795 
average row locality = 656381/190086 = 3.453074
number of total memory accesses made:
dram[0]:         0         0         0         0         0         0         0         0         0         0         0         0         0         0         0         0 
dram[1]:         0         0         0         0         0         0         0         0         0         0         0         0         0         0         0         0 
dram[2]:         0         0         0         0         0         0         0         0         0         0         0         0         0         0         0         0 
dram[3]:         0         0         0         0         0         0         0         0         0         0         0         0         0         0         0         0 
dram[4]:         0         0         0         0         0         0         0         0         0         0         0         0         0         0         0         0 
dram[5]:         0         0         0         0         0         0         0         0         0         0         0         0         0         0         0         0 
dram[6]:         0         0         0         0         0         0         0         0         0         0         0         0         0         0         0         0 
dram[7]:         0         0         0         0         0         0         0         0         0         0         0         0         0         0         0         0 
dram[8]:         0         0         0         0         0         0         0         0         0         0         0         0         0         0         0         0 
dram[9]:         0         0         0         0         0         0         0         0         0         0         0         0         0         0         0         0 
dram[10]:         0         0         0         0         0         0         0         0         0         0         0         0         0         0         0         0 
dram[11]:         0         0         0         0         0         0         0         0         0         0         0         0         0         0         0         0 
[...]
issued_total_col = 33441 
Row_Bus_Util =  0.185441 
CoL_Bus_Util = 0.508848 
Either_Row_CoL_Bus_Util = 0.600831 
Issued_on_Two_Bus_Simul_Util = 0.093459 
issued_two_Eff = 0.155549 
queue_avg = 30.544134 


dram_util_bins: 0 0 0 0 0 0 0 0 0 0
dram_eff_bins: 0 0 0 0 0 0 0 0 0 0
mrqq: max=64 avg=30.5441
Memory Partition 28: 
Cache L2_bank_056:

Cache L2_bank_057:

In Dram Latency Queue (total = 91): 
DRAM[28]: 16 bks, busW=16 BL=2 CL=12, tRRD=3 tCCD=1, tRCD=12 tRAS=28 tRP=12 tRC=40
n_cmd=65719 n_nop=25118 n_act=5892 n_pre=5878 n_ref_event=0 n_req=21326 n_rd=16672 n_rd_L2_A=0 n_write=0 n_wr_bk=18420 bw_util=0.534
n_activity=60872 dram_eff=0.5765
bk0: 900a 47441i bk1: 876a 47573i bk2: 772a 54221i bk3: 772a 53431i bk4: 776a 58548i bk5: 768a 58785i bk6: 912a 53940i bk7: 920a 54637i bk8: 1216a 44302i bk9: 1224a 45910i bk10: 1280a 37925i bk11: 1280a 39654i bk12: 1280a 35567i bk13: 1280a 38059i bk14: 1208a 37808i bk15: 1208a 40422i 

------------------------------------------------------------------------

Row_Buffer_Locality = 0.723065
Row_Buffer_Locality_read = 0.802099
Row_Buffer_Locality_write = 0.437066
Bank_Level_Parallism = 5.374812
Bank_Level_Parallism_Col = 3.541875
Bank_Level_Parallism_Ready = 1.653254
write_to_read_ratio_blp_rw_average = 0.483308
GrpLevelPara = 2.641510 

BW Util details:
bwutil = 0.533970 
total_CMD = 65719 
util_bw = 35092 
Wasted_Col = 23281 
Wasted_Row = 2012 
Idle = 5334 

BW Util Bottlenecks: 
RCDc_limit = 17306 
RCDWRc_limit = 10776 
WTRc_limit = 12531 
RTWc_limit = 26439 
CCDLc_limit = 13116 
rwq = 0 
CCDLc_limit_alone = 11293 
WTRc_limit_alone = 11709 
RTWc_limit_alone = 25438 

Commands details: 
total_CMD = 65719 
n_nop = 25118 
Read = 16672 
Write = 0 
L2_Alloc = 0 
L2_WB = 18420 
n_act = 5892 
n_pre = 5878 
n_ref = 0 
n_req = 21326 
total_req = 35092 

Dual Bus Interface Util: 
issued_total_row = 11770 
issued_total_col = 35092 
Row_Bus_Util =  0.179096 
CoL_Bus_Util = 0.533970 
Either_Row_CoL_Bus_Util = 0.617797 
Issued_on_Two_Bus_Simul_Util = 0.095269 
issued_two_Eff = 0.154208 
queue_avg = 30.944735 


dram_util_bins: 0 0 0 0 0 0 0 0 0 0
dram_eff_bins: 0 0 0 0 0 0 0 0 0 0
mrqq: max=64 avg=30.9447
Memory Partition 29: 
Cache L2_bank_058:

Cache L2_bank_059:

In Dram Latency Queue (total = 64): 
DRAM[29]: 16 bks, busW=16 BL=2 CL=12, tRRD=3 tCCD=1, tRCD=12 tRAS=28 tRP=12 tRC=40
n_cmd=65719 n_nop=26398 n_act=5936 n_pre=5920 n_ref_event=0 n_req=19377 n_rd=14664 n_rd_L2_A=0 n_write=0 n_wr_bk=18748 bw_util=0.5084
n_activity=60171 dram_eff=0.5553
bk0: 796a 46744i bk1: 788a 47871i bk2: 690a 54762i bk3: 683a 53456i bk4: 680a 58346i bk5: 687a 58357i bk6: 798a 55413i bk7: 805a 54084i bk8: 1064a 46724i bk9: 1071a 47019i bk10: 1120a 41297i bk11: 1120a 40178i bk12: 1120a 36797i bk13: 1120a 37742i bk14: 1061a 39157i bk15: 1061a 39808i 

------------------------------------------------------------------------

Row_Buffer_Locality = 0.693222
Row_Buffer_Locality_read = 0.787073
Row_Buffer_Locality_write = 0.399659
Bank_Level_Parallism = 5.250889
Bank_Level_Parallism_Col = 3.408627
Bank_Level_Parallism_Ready = 1.620795
write_to_read_ratio_blp_rw_average = 0.499162
GrpLevelPara = 2.600988 

BW Util details:
bwutil = 0.508407 
total_CMD = 65719 
util_bw = 33412 
Wasted_Col = 23414 
Wasted_Row = 2802 
Idle = 6091 

BW Util Bottlenecks: 
RCDc_limit = 17691 
RCDWRc_limit = 11621 
WTRc_limit = 11980 
RTWc_limit = 22102 
CCDLc_limit = 12196 
rwq = 0 
CCDLc_limit_alone = 10597 
WTRc_limit_alone = 11235 
RTWc_limit_alone = 21248 

Commands details: 
total_CMD = 65719 
n_nop = 26398 
Read = 14664 
Write = 0 
L2_Alloc = 0 
L2_WB = 18748 
n_act = 5936 
n_pre = 5920 
n_ref = 0 
n_req = 19377 
total_req = 33412 

Dual Bus Interface Util: 
issued_total_row = 11856 
issued_total_col = 33412 
Row_Bus_Util =  0.180404 
CoL_Bus_Util = 0.508407 
Either_Row_CoL_Bus_Util = 0.598320 
Issued_on_Two_Bus_Simul_Util = 0.090491 
issued_two_Eff = 0.151242 
queue_avg = 27.958338 


dram_util_bins: 0 0 0 0 0 0 0 0 0 0
dram_eff_bins: 0 0 0 0 0 0 0 0 0 0
mrqq: max=64 avg=27.9583
Memory Partition 30: 
Cache L2_bank_060:

Cache L2_bank_061:

In Dram Latency Queue (total = 205): 
DRAM[30]: 16 bks, busW=16 BL=2 CL=12, tRRD=3 tCCD=1, tRCD=12 tRAS=28 tRP=12 tRC=40
n_cmd=65719 n_nop=25328 n_act=5898 n_pre=5884 n_ref_event=0 n_req=21401 n_rd=16884 n_rd_L2_A=0 n_write=0 n_wr_bk=17888 bw_util=0.5291
n_activity=61049 dram_eff=0.5696
bk0: 956a 46537i bk1: 920a 47894i bk2: 832a 52683i bk3: 752a 54330i bk4: 808a 58083i bk5: 784a 56948i bk6: 924a 54668i bk7: 932a 53790i bk8: 1216a 45652i bk9: 1224a 45294i bk10: 1280a 39067i bk11: 1280a 38982i bk12: 1280a 37194i bk13: 1276a 36169i bk14: 1224a 39266i bk15: 1196a 39866i 

------------------------------------------------------------------------

Row_Buffer_Locality = 0.723762
Row_Buffer_Locality_read = 0.803695
Row_Buffer_Locality_write = 0.422123
Bank_Level_Parallism = 5.387460
Bank_Level_Parallism_Col = 3.578615
Bank_Level_Parallism_Ready = 1.612591
write_to_read_ratio_blp_rw_average = 0.480023
GrpLevelPara = 2.673272 

BW Util details:
bwutil = 0.529101 
total_CMD = 65719 
util_bw = 34772 
Wasted_Col = 23796 
Wasted_Row = 2024 
Idle = 5127 

BW Util Bottlenecks: 
RCDc_limit = 17616 
RCDWRc_limit = 10996 
WTRc_limit = 12781 
RTWc_limit = 28374 
CCDLc_limit = 13365 
rwq = 0 
CCDLc_limit_alone = 11310 
WTRc_limit_alone = 11948 
RTWc_limit_alone = 27152 

Commands details: 
total_CMD = 65719 
n_nop = 25328 
Read = 16884 
Write = 0 
L2_Alloc = 0 
L2_WB = 17888 
n_act = 5898 
n_pre = 5884 
n_ref = 0 
n_req = 21401 
total_req = 34772 

Dual Bus Interface Util: 
issued_total_row = 11782 
issued_total_col = 34772 
Row_Bus_Util =  0.179278 
CoL_Bus_Util = 0.529101 
Either_Row_CoL_Bus_Util = 0.614602 
Issued_on_Two_Bus_Simul_Util = 0.093778 
issued_two_Eff = 0.152583 
queue_avg = 31.276724 


dram_util_bins: 0 0 0 0 0 0 0 0 0 0
dram_eff_bins: 0 0 0 0 0 0 0 0 0 0
mrqq: max=64 avg=31.2767
Memory Partition 31: 
Cache L2_bank_062:

Cache L2_bank_063:

In Dram Latency Queue (total = 187): 
DRAM[31]: 16 bks, busW=16 BL=2 CL=12, tRRD=3 tCCD=1, tRCD=12 tRAS=28 tRP=12 tRC=40
n_cmd=65719 n_nop=25184 n_act=6250 n_pre=6237 n_ref_event=0 n_req=19874 n_rd=14992 n_rd_L2_A=0 n_write=0 n_wr_bk=19300 bw_util=0.5218
n_activity=60975 dram_eff=0.5624
bk0: 857a 44415i bk1: 847a 44836i bk2: 728a 52271i bk3: 721a 53019i bk4: 711a 56965i bk5: 731a 57094i bk6: 813a 54595i bk7: 816a 54617i bk8: 1064a 45981i bk9: 1071a 46071i bk10: 1120a 40330i bk11: 1120a 38431i bk12: 1120a 35552i bk13: 1117a 34618i bk14: 1078a 36961i bk15: 1078a 36648i 

------------------------------------------------------------------------

Row_Buffer_Locality = 0.684542
Row_Buffer_Locality_read = 0.776755
Row_Buffer_Locality_write = 0.397927
Bank_Level_Parallism = 5.579340
Bank_Level_Parallism_Col = 3.607973
Bank_Level_Parallism_Ready = 1.658229
write_to_read_ratio_blp_rw_average = 0.498016
GrpLevelPara = 2.696545 

BW Util details:
bwutil = 0.521797 
total_CMD = 65719 
util_bw = 34292 
Wasted_Col = 24321 
Wasted_Row = 2132 
Idle = 4974 

BW Util Bottlenecks: 
RCDc_limit = 19001 
RCDWRc_limit = 12150 
WTRc_limit = 14751 
RTWc_limit = 27598 
CCDLc_limit = 13287 
rwq = 0 
CCDLc_limit_alone = 10988 
WTRc_limit_alone = 13602 
RTWc_limit_alone = 26448 

Commands details: 
total_CMD = 65719 
n_nop = 25184 
Read = 14992 
Write = 0 
L2_Alloc = 0 
L2_WB = 19300 
n_act = 6250 
n_pre = 6237 
n_ref = 0 
n_req = 19874 
total_req = 34292 

Dual Bus Interface Util: 
issued_total_row = 12487 
issued_total_col = 34292 
Row_Bus_Util =  0.190006 
CoL_Bus_Util = 0.521797 
Either_Row_CoL_Bus_Util = 0.616793 
Issued_on_Two_Bus_Simul_Util = 0.095011 
issued_two_Eff = 0.154040 
queue_avg = 31.403978 


dram_util_bins: 0 0 0 0 0 0 0 0 0 0
dram_eff_bins: 0 0 0 0 0 0 0 0 0 0
mrqq: max=64 avg=31.404

========= L2 cache stats =========
L2_cache_bank[0]: Access = 15275, Miss = 14809, Miss_rate = 0.969, Pending_hits = 0, Reservation_fails = 337
L2_cache_bank[1]: Access = 15220, Miss = 14697, Miss_rate = 0.966, Pending_hits = 0, Reservation_fails = 296
L2_cache_bank[2]: Access = 14007, Miss = 13541, Miss_rate = 0.967, Pending_hits = 0, Reservation_fails = 0
L2_cache_bank[3]: Access = 14040, Miss = 13514, Miss_rate = 0.963, Pending_hits = 0, Reservation_fails = 15
L2_cache_bank[4]: Access = 15049, Miss = 14577, Miss_rate = 0.969, Pending_hits = 0, Reservation_fails = 489
L2_cache_bank[5]: Access = 15366, Miss = 14849, Miss_rate = 0.966, Pending_hits = 0, Reservation_fails = 225
L2_cache_bank[6]: Access = 14059, Miss = 13578, Miss_rate = 0.966, Pending_hits = 0, Reservation_fails = 117
L2_cache_bank[7]: Access = 14083, Miss = 13565, Miss_rate = 0.963, Pending_hits = 0, Reservation_fails = 15
L2_cache_bank[8]: Access = 14935, Miss = 14470, Miss_rate = 0.969, Pending_hits = 0, Reservation_fails = 297
L2_cache_bank[9]: Access = 14918, Miss = 14408, Miss_rate = 0.966, Pending_hits = 0, Reservation_fails = 49
L2_cache_bank[10]: Access = 13765, Miss = 13291, Miss_rate = 0.966, Pending_hits = 0, Reservation_fails = 616
L2_cache_bank[11]: Access = 13689, Miss = 13178, Miss_rate = 0.963, Pending_hits = 0, Reservation_fails = 336
L2_cache_bank[12]: Access = 15245, Miss = 14753, Miss_rate = 0.968, Pending_hits = 0, Reservation_fails = 0
L2_cache_bank[13]: Access = 15109, Miss = 14599, Miss_rate = 0.966, Pending_hits = 0, Reservation_fails = 10
L2_cache_bank[14]: Access = 14046, Miss = 13574, Miss_rate = 0.966, Pending_hits = 0, Reservation_fails = 703
L2_cache_bank[15]: Access = 13949, Miss = 13424, Miss_rate = 0.962, Pending_hits = 0, Reservation_fails = 206
L2_cache_bank[16]: Access = 14971, Miss = 14489, Miss_rate = 0.968, Pending_hits = 0, Reservation_fails = 0
L2_cache_bank[17]: Access = 14976, Miss = 14468, Miss_rate = 0.966, Pending_hits = 0, Reservation_fails = 97
L2_cache_bank[18]: Access = 13857, Miss = 13368, Miss_rate = 0.965, Pending_hits = 0, Reservation_fails = 274
L2_cache_bank[19]: Access = 13722, Miss = 13217, Miss_rate = 0.963, Pending_hits = 0, Reservation_fails = 399
L2_cache_bank[20]: Access = 14848, Miss = 14375, Miss_rate = 0.968, Pending_hits = 0, Reservation_fails = 47
L2_cache_bank[21]: Access = 14960, Miss = 14448, Miss_rate = 0.966, Pending_hits = 0, Reservation_fails = 10
L2_cache_bank[22]: Access = 13560, Miss = 13086, Miss_rate = 0.965, Pending_hits = 0, Reservation_fails = 245
L2_cache_bank[23]: Access = 13581, Miss = 13065, Miss_rate = 0.962, Pending_hits = 0, Reservation_fails = 587
L2_cache_bank[24]: Access = 14304, Miss = 13841, Miss_rate = 0.968, Pending_hits = 0, Reservation_fails = 209
L2_cache_bank[25]: Access = 14823, Miss = 14290, Miss_rate = 0.964, Pending_hits = 0, Reservation_fails = 10
L2_cache_bank[26]: Access = 13490, Miss = 13002, Miss_rate = 0.964, Pending_hits = 0, Reservation_fails = 170
L2_cache_bank[27]: Access = 13649, Miss = 13125, Miss_rate = 0.962, Pending_hits = 0, Reservation_fails = 21
L2_cache_bank[28]: Access = 15139, Miss = 14648, Miss_rate = 0.968, Pending_hits = 0, Reservation_fails = 201
L2_cache_bank[29]: Access = 15337, Miss = 14827, Miss_rate = 0.967, Pending_hits = 0, Reservation_fails = 10
L2_cache_bank[30]: Access = 13952, Miss = 13467, Miss_rate = 0.965, Pending_hits = 0, Reservation_fails = 115
L2_cache_bank[31]: Access = 14145, Miss = 13614, Miss_rate = 0.962, Pending_hits = 0, Reservation_fails = 15
L2_cache_bank[32]: Access = 15368, Miss = 14874, Miss_rate = 0.968, Pending_hits = 0, Reservation_fails = 785
L2_cache_bank[33]: Access = 15311, Miss = 14801, Miss_rate = 0.967, Pending_hits = 0, Reservation_fails = 14
L2_cache_bank[34]: Access = 14010, Miss = 13519, Miss_rate = 0.965, Pending_hits = 0, Reservation_fails = 735
L2_cache_bank[35]: Access = 14094, Miss = 13577, Miss_rate = 0.963, Pending_hits = 0, Reservation_fails = 187
L2_cache_bank[36]: Access = 15248, Miss = 14750, Miss_rate = 0.967, Pending_hits = 0, Reservation_fails = 469
L2_cache_bank[37]: Access = 15214, Miss = 14693, Miss_rate = 0.966, Pending_hits = 0, Reservation_fails = 10
L2_cache_bank[38]: Access = 13982, Miss = 13492, Miss_rate = 0.965, Pending_hits = 0, Reservation_fails = 4
L2_cache_bank[39]: Access = 14024, Miss = 13493, Miss_rate = 0.962, Pending_hits = 0, Reservation_fails = 15
L2_cache_bank[40]: Access = 15105, Miss = 14615, Miss_rate = 0.968, Pending_hits = 0, Reservation_fails = 390
L2_cache_bank[41]: Access = 15191, Miss = 14690, Miss_rate = 0.967, Pending_hits = 0, Reservation_fails = 10
L2_cache_bank[42]: Access = 14090, Miss = 13592, Miss_rate = 0.965, Pending_hits = 0, Reservation_fails = 0
L2_cache_bank[43]: Access = 13977, Miss = 13477, Miss_rate = 0.964, Pending_hits = 0, Reservation_fails = 53
L2_cache_bank[44]: Access = 15055, Miss = 14554, Miss_rate = 0.967, Pending_hits = 0, Reservation_fails = 0
L2_cache_bank[45]: Access = 15158, Miss = 14648, Miss_rate = 0.966, Pending_hits = 0, Reservation_fails = 295
L2_cache_bank[46]: Access = 13905, Miss = 13411, Miss_rate = 0.964, Pending_hits = 0, Reservation_fails = 0
L2_cache_bank[47]: Access = 13912, Miss = 13395, Miss_rate = 0.963, Pending_hits = 0, Reservation_fails = 15
L2_cache_bank[48]: Access = 15014, Miss = 14508, Miss_rate = 0.966, Pending_hits = 0, Reservation_fails = 0
L2_cache_bank[49]: Access = 15199, Miss = 14684, Miss_rate = 0.966, Pending_hits = 0, Reservation_fails = 10
L2_cache_bank[50]: Access = 13938, Miss = 13437, Miss_rate = 0.964, Pending_hits = 0, Reservation_fails = 117
L2_cache_bank[51]: Access = 13838, Miss = 13325, Miss_rate = 0.963, Pending_hits = 0, Reservation_fails = 37
L2_cache_bank[52]: Access = 14925, Miss = 14417, Miss_rate = 0.966, Pending_hits = 0, Reservation_fails = 179
L2_cache_bank[53]: Access = 15144, Miss = 14629, Miss_rate = 0.966, Pending_hits = 0, Reservation_fails = 10
L2_cache_bank[54]: Access = 13727, Miss = 13222, Miss_rate = 0.963, Pending_hits = 0, Reservation_fails = 416
L2_cache_bank[55]: Access = 13784, Miss = 13262, Miss_rate = 0.962, Pending_hits = 0, Reservation_fails = 570
L2_cache_bank[56]: Access = 14772, Miss = 14268, Miss_rate = 0.966, Pending_hits = 0, Reservation_fails = 311
L2_cache_bank[57]: Access = 14876, Miss = 14365, Miss_rate = 0.966, Pending_hits = 0, Reservation_fails = 10
L2_cache_bank[58]: Access = 13561, Miss = 13059, Miss_rate = 0.963, Pending_hits = 0, Reservation_fails = 0
L2_cache_bank[59]: Access = 13582, Miss = 13064, Miss_rate = 0.962, Pending_hits = 0, Reservation_fails = 15
L2_cache_bank[60]: Access = 15161, Miss = 14648, Miss_rate = 0.966, Pending_hits = 0, Reservation_fails = 177
L2_cache_bank[61]: Access = 14976, Miss = 14468, Miss_rate = 0.966, Pending_hits = 0, Reservation_fails = 10
L2_cache_bank[62]: Access = 14019, Miss = 13507, Miss_rate = 0.963, Pending_hits = 0, Reservation_fails = 0
L2_cache_bank[63]: Access = 14072, Miss = 13531, Miss_rate = 0.962, Pending_hits = 0, Reservation_fails = 15
L2_total_cache_accesses = 926301
L2_total_cache_misses = 894132
L2_total_cache_miss_rate = 0.9653
L2_total_cache_pending_hits = 0
L2_total_cache_reservation_fails = 10980
L2_total_cache_breakdown:
	L2_cache_stats_breakdown[GLOBAL_ACC_R][HIT] = 0
	L2_cache_stats_breakdown[GLOBAL_ACC_R][HIT_RESERVED] = 0
	L2_cache_stats_breakdown[GLOBAL_ACC_R][MISS] = 137039
	L2_cache_stats_breakdown[GLOBAL_ACC_R][RESERVATION_FAIL] = 10980
	L2_cache_stats_breakdown[GLOBAL_ACC_R][SECTOR_MISS] = 377109
	L2_cache_stats_breakdown[LOCAL_ACC_R][HIT] = 0
	L2_cache_stats_breakdown[LOCAL_ACC_R][HIT_RESERVED] = 0
	L2_cache_stats_breakdown[LOCAL_ACC_R][MISS] = 0
	L2_cache_stats_breakdown[LOCAL_ACC_R][RESERVATION_FAIL] = 0
	L2_cache_stats_breakdown[LOCAL_ACC_R][SECTOR_MISS] = 0
	L2_cache_stats_breakdown[CONST_ACC_R][HIT] = 0
	L2_cache_stats_breakdown[CONST_ACC_R][HIT_RESERVED] = 0
	L2_cache_stats_breakdown[CONST_ACC_R][MISS] = 0
	L2_cache_stats_breakdown[CONST_ACC_R][RESERVATION_FAIL] = 0
	L2_cache_stats_breakdown[CONST_ACC_R][SECTOR_MISS] = 0
	L2_cache_stats_breakdown[TEXTURE_ACC_R][HIT] = 0
	L2_cache_stats_breakdown[TEXTURE_ACC_R][HIT_RESERVED] = 0
	L2_cache_stats_breakdown[TEXTURE_ACC_R][MISS] = 0
	L2_cache_stats_breakdown[TEXTURE_ACC_R][RESERVATION_FAIL] = 0
	L2_cache_stats_breakdown[TEXTURE_ACC_R][SECTOR_MISS] = 0
	L2_cache_stats_breakdown[GLOBAL_ACC_W][HIT] = 32169
	L2_cache_stats_breakdown[GLOBAL_ACC_W][HIT_RESERVED] = 0
	L2_cache_stats_breakdown[GLOBAL_ACC_W][MISS] = 97587
	L2_cache_stats_breakdown[GLOBAL_ACC_W][RESERVATION_FAIL] = 0
	L2_cache_stats_breakdown[GLOBAL_ACC_W][SECTOR_MISS] = 282397
	L2_cache_stats_breakdown[LOCAL_ACC_W][HIT] = 0
	L2_cache_stats_breakdown[LOCAL_ACC_W][HIT_RESERVED] = 0
	L2_cache_stats_breakdown[LOCAL_ACC_W][MISS] = 0
	L2_cache_stats_breakdown[LOCAL_ACC_W][RESERVATION_FAIL] = 0
	L2_cache_stats_breakdown[LOCAL_ACC_W][SECTOR_MISS] = 0
	L2_cache_stats_breakdown[L1_WRBK_ACC][HIT] = 0
	L2_cache_stats_breakdown[L1_WRBK_ACC][HIT_RESERVED] = 0
	L2_cache_stats_breakdown[L1_WRBK_ACC][MISS] = 0
	L2_cache_stats_breakdown[L1_WRBK_ACC][RESERVATION_FAIL] = 0
	L2_cache_stats_breakdown[L1_WRBK_ACC][SECTOR_MISS] = 0
	L2_cache_stats_breakdown[L2_WRBK_ACC][HIT] = 0
	L2_cache_stats_breakdown[L2_WRBK_ACC][HIT_RESERVED] = 0
	L2_cache_stats_breakdown[L2_WRBK_ACC][MISS] = 0
	L2_cache_stats_breakdown[L2_WRBK_ACC][RESERVATION_FAIL] = 0
	L2_cache_stats_breakdown[L2_WRBK_ACC][SECTOR_MISS] = 0
	L2_cache_stats_breakdown[INST_ACC_R][HIT] = 0
	L2_cache_stats_breakdown[INST_ACC_R][HIT_RESERVED] = 0
	L2_cache_stats_breakdown[INST_ACC_R][MISS] = 0
	L2_cache_stats_breakdown[INST_ACC_R][RESERVATION_FAIL] = 0
	L2_cache_stats_breakdown[INST_ACC_R][SECTOR_MISS] = 0
	L2_cache_stats_breakdown[L1_WR_ALLOC_R][HIT] = 0
	L2_cache_stats_breakdown[L1_WR_ALLOC_R][HIT_RESERVED] = 0
	L2_cache_stats_breakdown[L1_WR_ALLOC_R][MISS] = 0
	L2_cache_stats_breakdown[L1_WR_ALLOC_R][RESERVATION_FAIL] = 0
	L2_cache_stats_breakdown[L1_WR_ALLOC_R][SECTOR_MISS] = 0
	L2_cache_stats_breakdown[L2_WR_ALLOC_R][HIT] = 0
	L2_cache_stats_breakdown[L2_WR_ALLOC_R][HIT_RESERVED] = 0
	L2_cache_stats_breakdown[L2_WR_ALLOC_R][MISS] = 0
	L2_cache_stats_breakdown[L2_WR_ALLOC_R][RESERVATION_FAIL] = 0
	L2_cache_stats_breakdown[L2_WR_ALLOC_R][SECTOR_MISS] = 0
	L2_cache_stats_breakdown[GLOBAL_ACC_R][TOTAL_ACCESS] = 514148
	L2_cache_stats_breakdown[GLOBAL_ACC_W][TOTAL_ACCESS] = 412153
L2_total_cache_reservation_fail_breakdown:
	L2_cache_stats_fail_breakdown[GLOBAL_ACC_R][MSHR_ENRTY_FAIL] = 10980
L2_cache_data_port_util = 0.006
L2_cache_fill_port_util = 0.091

icnt_total_pkts_mem_to_simt=1283888
icnt_total_pkts_simt_to_mem=1345271
LD_mem_lat_dist  0 0 0 0 0 0 0 0 0 0 0 0 0 0 0 0 0 0 0 0 0 0 0 0 0 0 0
ST_mem_lat_dist  0 0 0 0 0 0 0 0 0 0 0 0 0 0 0 0 0 0 0 0 0 0 0 0 0 0 0
----------------------------Interconnect-DETAILS--------------------------------
Req_Network_injected_packets_num = 1345271
Req_Network_cycles = 87522
Req_Network_injected_packets_per_cycle =      15.3707 
Req_Network_conflicts_per_cycle =      57.7656
Req_Network_conflicts_per_cycle_util =      61.3891
Req_Bank_Level_Parallism =      15.8386
Req_Network_in_buffer_full_per_cycle =      67.3794
Req_Network_in_buffer_avg_util =     477.6643
Req_Network_out_buffer_full_per_cycle =       3.5853
Req_Network_out_buffer_avg_util =     163.4703

Reply_Network_injected_packets_num = 1283974
Reply_Network_cycles = 87522
Reply_Network_injected_packets_per_cycle =       14.6703
Reply_Network_conflicts_per_cycle =        3.3361
Reply_Network_conflicts_per_cycle_util =       3.6481
Reply_Bank_Level_Parallism =      16.0416
Reply_Network_in_buffer_full_per_cycle =       0.0000
Reply_Network_in_buffer_avg_util =       0.3749
Reply_Network_out_buffer_full_per_cycle =       0.0000
Reply_Network_out_buffer_avg_util =       0.1834
----------------------------END-of-Interconnect-DETAILS-------------------------


gpgpu_simulation_time = 0 days, 0 hrs, 12 min, 48 sec (768 sec)
gpgpu_simulation_rate = 52160 (inst/sec)
gpgpu_simulation_rate = 113 (cycle/sec)
gpgpu_silicon_slowdown = 10017699x
GPGPU-Sim: *** simulation thread exiting ***
GPGPU-Sim: ** break due to reaching the maximum cycles (or instructions) **
GPGPU-Sim: *** exit detected ***
