

        *** GPGPU-Sim Simulator Version 4.0.0  [build gpgpu-sim_git-commit-ffe0a1a00e984ecce9bf36e17ab94c4de0de8108_modified_0.0] ***


GPGPU-Sim PTX: simulation mode 0 (can change with PTX_SIM_MODE_FUNC environment variable:
               1=functional simulation only, 0=detailed performance simulator)
GPGPU-Sim PTX: overriding embedded ptx with ptx file (PTX_SIM_USE_PTX_FILE is set)
GPGPU-Sim: Configuration options:

-save_embedded_ptx                      0 # saves ptx files embedded in binary as <n>.ptx
-keep                                   0 # keep intermediate files created by GPGPU-Sim when interfacing with external programs
-gpgpu_ptx_save_converted_ptxplus                    0 # Saved converted ptxplus to a file
-gpgpu_occupancy_sm_number                   70 # The SM number to pass to ptxas when getting register usage for computing GPU occupancy. This parameter is required in the config.
-ptx_opcode_latency_int      4,13,4,5,145,21 # Opcode latencies for integers <ADD,MAX,MUL,MAD,DIV,SHFL>Default 1,1,19,25,145,32
-ptx_opcode_latency_fp          4,13,4,5,39 # Opcode latencies for single precision floating points <ADD,MAX,MUL,MAD,DIV>Default 1,1,1,1,30
-ptx_opcode_latency_dp         8,19,8,8,330 # Opcode latencies for double precision floating points <ADD,MAX,MUL,MAD,DIV>Default 8,8,8,8,335
-ptx_opcode_latency_sfu                  100 # Opcode latencies for SFU instructionsDefault 8
-ptx_opcode_latency_tesnor                   64 # Opcode latencies for Tensor instructionsDefault 64
-ptx_opcode_initiation_int          2,2,2,2,8,4 # Opcode initiation intervals for integers <ADD,MAX,MUL,MAD,DIV,SHFL>Default 1,1,4,4,32,4
-ptx_opcode_initiation_fp            2,2,2,2,4 # Opcode initiation intervals for single precision floating points <ADD,MAX,MUL,MAD,DIV>Default 1,1,1,1,5
-ptx_opcode_initiation_dp          4,4,4,4,130 # Opcode initiation intervals for double precision floating points <ADD,MAX,MUL,MAD,DIV>Default 8,8,8,8,130
-ptx_opcode_initiation_sfu                    8 # Opcode initiation intervals for sfu instructionsDefault 8
-ptx_opcode_initiation_tensor                   64 # Opcode initiation intervals for tensor instructionsDefault 64
-cdp_latency         7200,8000,100,12000,1600 # CDP API latency <cudaStreamCreateWithFlags, cudaGetParameterBufferV2_init_perWarp, cudaGetParameterBufferV2_perKernel, cudaLaunchDeviceV2_init_perWarp, cudaLaunchDevicV2_perKernel>Default 7200,8000,100,12000,1600
-network_mode                           2 # Interconnection network mode
-inter_config_file                   mesh # Interconnection network config file
-icnt_in_buffer_limit                  512 # in_buffer_limit
-icnt_out_buffer_limit                  512 # out_buffer_limit
-icnt_subnets                           2 # subnets
-icnt_arbiter_algo                      1 # arbiter_algo
-icnt_verbose                           0 # inct_verbose
-icnt_grant_cycles                      1 # grant_cycles
-gpgpu_ptx_use_cuobjdump                    1 # Use cuobjdump to extract ptx and sass from binaries
-gpgpu_experimental_lib_support                    0 # Try to extract code from cuda libraries [Broken because of unknown cudaGetExportTable]
-checkpoint_option                      0 #  checkpointing flag (0 = no checkpoint)
-checkpoint_kernel                      1 #  checkpointing during execution of which kernel (1- 1st kernel)
-checkpoint_CTA                         0 #  checkpointing after # of CTA (< less than total CTA)
-resume_option                          0 #  resume flag (0 = no resume)
-resume_kernel                          0 #  Resume from which kernel (1= 1st kernel)
-resume_CTA                             0 #  resume from which CTA 
-checkpoint_CTA_t                       0 #  resume from which CTA 
-checkpoint_insn_Y                      0 #  resume from which CTA 
-gpgpu_ptx_convert_to_ptxplus                    0 # Convert SASS (native ISA) to ptxplus and run ptxplus
-gpgpu_ptx_force_max_capability                   70 # Force maximum compute capability
-gpgpu_ptx_inst_debug_to_file                    0 # Dump executed instructions' debug information to file
-gpgpu_ptx_inst_debug_file       inst_debug.txt # Executed instructions' debug output file
-gpgpu_ptx_inst_debug_thread_uid                    1 # Thread UID for executed instructions' debug output
-gpgpu_n_mem_for_l2wb_pcommit                   32 # number of memory modules (e.g. memory controllers) in gpu
-gpgpu_n_sub_partition_per_mchannel_for_l2wb_pcommit                    2 # number of memory subpartition in each memory module
-gpgpu_dl2_bsize_for_l2wb_pcommit                  128 # default 128 bytes
-gpgpu_simd_model                       1 # 1 = post-dominator
-gpgpu_shader_core_pipeline              2048:32 # shader core pipeline config, i.e., {<nthread>:<warpsize>}
-gpgpu_tex_cache:l1  N:4:128:256,L:R:m:N:L,T:512:8,128:2 # per-shader L1 texture cache  (READ-ONLY) config  {<nsets>:<bsize>:<assoc>,<rep>:<wr>:<alloc>:<wr_alloc>,<mshr>:<N>:<merge>,<mq>:<rf>}
-gpgpu_const_cache:l1 N:128:64:8,L:R:f:N:L,S:2:64,4 # per-shader L1 constant memory cache  (READ-ONLY) config  {<nsets>:<bsize>:<assoc>,<rep>:<wr>:<alloc>:<wr_alloc>,<mshr>:<N>:<merge>,<mq>} 
-gpgpu_cache:il1     N:64:128:16,L:R:f:N:L,S:2:48,4 # shader L1 instruction cache config  {<nsets>:<bsize>:<assoc>,<rep>:<wr>:<alloc>:<wr_alloc>,<mshr>:<N>:<merge>,<mq>} 
-gpgpu_cache:dl1     S:1:128:256,L:L:s:N:L,A:256:8,16:0,32 # per-shader L1 data cache config  {<nsets>:<bsize>:<assoc>,<rep>:<wr>:<alloc>:<wr_alloc>,<mshr>:<N>:<merge>,<mq> | none}
-gpgpu_l1_banks                         4 # The number of L1 cache banks
-gpgpu_l1_banks_byte_interleaving                   32 # l1 banks byte interleaving granularity
-gpgpu_l1_banks_hashing_function                    0 # l1 banks hashing function
-gpgpu_l1_latency                      20 # L1 Hit Latency
-gpgpu_smem_latency                    20 # smem Latency
-gpgpu_cache:dl1PrefL1                 none # per-shader L1 data cache config  {<nsets>:<bsize>:<assoc>,<rep>:<wr>:<alloc>:<wr_alloc>,<mshr>:<N>:<merge>,<mq> | none}
-gpgpu_cache:dl1PrefShared                 none # per-shader L1 data cache config  {<nsets>:<bsize>:<assoc>,<rep>:<wr>:<alloc>:<wr_alloc>,<mshr>:<N>:<merge>,<mq> | none}
-gpgpu_gmem_skip_L1D                    0 # global memory access skip L1D cache (implements -Xptxas -dlcm=cg, default=no skip)
-gpgpu_perfect_mem                      0 # enable perfect memory mode (no cache miss)
-n_regfile_gating_group                    4 # group of lanes that should be read/written together)
-gpgpu_clock_gated_reg_file                    0 # enable clock gated reg file for power calculations
-gpgpu_clock_gated_lanes                    0 # enable clock gated lanes for power calculations
-gpgpu_shader_registers                65536 # Number of registers per shader core. Limits number of concurrent CTAs. (default 8192)
-gpgpu_registers_per_block                65536 # Maximum number of registers per CTA. (default 8192)
-gpgpu_ignore_resources_limitation                    0 # gpgpu_ignore_resources_limitation (default 0)
-gpgpu_shader_cta                      32 # Maximum number of concurrent CTAs in shader (default 8)
-gpgpu_num_cta_barriers                   16 # Maximum number of named barriers per CTA (default 16)
-gpgpu_n_clusters                      80 # number of processing clusters
-gpgpu_n_cores_per_cluster                    1 # number of simd cores per cluster
-gpgpu_n_cluster_ejection_buffer_size                   32 # number of packets in ejection buffer
-gpgpu_n_ldst_response_buffer_size                    2 # number of response packets in ld/st unit ejection buffer
-gpgpu_shmem_per_block                65536 # Size of shared memory per thread block or CTA (default 48kB)
-gpgpu_shmem_size                   98304 # Size of shared memory per shader core (default 16kB)
-gpgpu_adaptive_cache_config            536870913 # adaptive_cache_config
-gpgpu_shmem_sizeDefault                98304 # Size of shared memory per shader core (default 16kB)
-gpgpu_shmem_size_PrefL1                16384 # Size of shared memory per shader core (default 16kB)
-gpgpu_shmem_size_PrefShared                16384 # Size of shared memory per shader core (default 16kB)
-gpgpu_shmem_num_banks                   32 # Number of banks in the shared memory in each shader core (default 16)
-gpgpu_shmem_limited_broadcast                    0 # Limit shared memory to do one broadcast per cycle (default on)
-gpgpu_shmem_warp_parts                    1 # Number of portions a warp is divided into for shared memory bank conflict check 
-gpgpu_mem_unit_ports                    1 # The number of memory transactions allowed per core cycle
-gpgpu_shmem_warp_parts                    1 # Number of portions a warp is divided into for shared memory bank conflict check 
-gpgpu_warpdistro_shader                   -1 # Specify which shader core to collect the warp size distribution from
-gpgpu_warp_issue_shader                    0 # Specify which shader core to collect the warp issue distribution from
-gpgpu_local_mem_map                    1 # Mapping from local memory space address to simulated GPU physical address space (default = enabled)
-gpgpu_num_reg_banks                   16 # Number of register banks (default = 8)
-gpgpu_reg_bank_use_warp_id                    0 # Use warp ID in mapping registers to banks (default = off)
-gpgpu_sub_core_model                    1 # Sub Core Volta/Pascal model (default = off)
-gpgpu_enable_specialized_operand_collector                    0 # enable_specialized_operand_collector
-gpgpu_operand_collector_num_units_sp                    4 # number of collector units (default = 4)
-gpgpu_operand_collector_num_units_dp                    0 # number of collector units (default = 0)
-gpgpu_operand_collector_num_units_sfu                    4 # number of collector units (default = 4)
-gpgpu_operand_collector_num_units_int                    0 # number of collector units (default = 0)
-gpgpu_operand_collector_num_units_tensor_core                    4 # number of collector units (default = 4)
-gpgpu_operand_collector_num_units_mem                    2 # number of collector units (default = 2)
-gpgpu_operand_collector_num_units_gen                    8 # number of collector units (default = 0)
-gpgpu_operand_collector_num_in_ports_sp                    1 # number of collector unit in ports (default = 1)
-gpgpu_operand_collector_num_in_ports_dp                    0 # number of collector unit in ports (default = 0)
-gpgpu_operand_collector_num_in_ports_sfu                    1 # number of collector unit in ports (default = 1)
-gpgpu_operand_collector_num_in_ports_int                    0 # number of collector unit in ports (default = 0)
-gpgpu_operand_collector_num_in_ports_tensor_core                    1 # number of collector unit in ports (default = 1)
-gpgpu_operand_collector_num_in_ports_mem                    1 # number of collector unit in ports (default = 1)
-gpgpu_operand_collector_num_in_ports_gen                    8 # number of collector unit in ports (default = 0)
-gpgpu_operand_collector_num_out_ports_sp                    1 # number of collector unit in ports (default = 1)
-gpgpu_operand_collector_num_out_ports_dp                    0 # number of collector unit in ports (default = 0)
-gpgpu_operand_collector_num_out_ports_sfu                    1 # number of collector unit in ports (default = 1)
-gpgpu_operand_collector_num_out_ports_int                    0 # number of collector unit in ports (default = 0)
-gpgpu_operand_collector_num_out_ports_tensor_core                    1 # number of collector unit in ports (default = 1)
-gpgpu_operand_collector_num_out_ports_mem                    1 # number of collector unit in ports (default = 1)
-gpgpu_operand_collector_num_out_ports_gen                    8 # number of collector unit in ports (default = 0)
-gpgpu_coalesce_arch                   60 # Coalescing arch (GT200 = 13, Fermi = 20)
-gpgpu_num_sched_per_core                    4 # Number of warp schedulers per core
-gpgpu_max_insn_issue_per_warp                    1 # Max number of instructions that can be issued per warp in one cycle by scheduler (either 1 or 2)
-gpgpu_dual_issue_diff_exec_units                    1 # should dual issue use two different execution unit resources (Default = 1)
-gpgpu_simt_core_sim_order                    1 # Select the simulation order of cores in a cluster (0=Fix, 1=Round-Robin)
-gpgpu_pipeline_widths 4,4,4,4,4,4,4,4,4,4,8,4,4 # Pipeline widths ID_OC_SP,ID_OC_DP,ID_OC_INT,ID_OC_SFU,ID_OC_MEM,OC_EX_SP,OC_EX_DP,OC_EX_INT,OC_EX_SFU,OC_EX_MEM,EX_WB,ID_OC_TENSOR_CORE,OC_EX_TENSOR_CORE
-gpgpu_tensor_core_avail                    1 # Tensor Core Available (default=0)
-gpgpu_num_sp_units                     4 # Number of SP units (default=1)
-gpgpu_num_dp_units                     4 # Number of DP units (default=0)
-gpgpu_num_int_units                    4 # Number of INT units (default=0)
-gpgpu_num_sfu_units                    4 # Number of SF units (default=1)
-gpgpu_num_tensor_core_units                    4 # Number of tensor_core units (default=1)
-gpgpu_num_mem_units                    1 # Number if ldst units (default=1) WARNING: not hooked up to anything
-gpgpu_scheduler                      gto # Scheduler configuration: < lrr | gto | two_level_active > If two_level_active:<num_active_warps>:<inner_prioritization>:<outer_prioritization>For complete list of prioritization values see shader.h enum scheduler_prioritization_typeDefault: gto
-gpgpu_concurrent_kernel_sm                    0 # Support concurrent kernels on a SM (default = disabled)
-gpgpu_perfect_inst_const_cache                    1 # perfect inst and const cache mode, so all inst and const hits in the cache(default = disabled)
-gpgpu_inst_fetch_throughput                    4 # the number of fetched intruction per warp each cycle
-gpgpu_reg_file_port_throughput                    2 # the number ports of the register file
-specialized_unit_1         0,4,4,4,4,BRA # specialized unit config {<enabled>,<num_units>:<latency>:<initiation>,<ID_OC_SPEC>:<OC_EX_SPEC>,<NAME>}
-specialized_unit_2         0,4,4,4,4,BRA # specialized unit config {<enabled>,<num_units>:<latency>:<initiation>,<ID_OC_SPEC>:<OC_EX_SPEC>,<NAME>}
-specialized_unit_3         0,4,4,4,4,BRA # specialized unit config {<enabled>,<num_units>:<latency>:<initiation>,<ID_OC_SPEC>:<OC_EX_SPEC>,<NAME>}
-specialized_unit_4         0,4,4,4,4,BRA # specialized unit config {<enabled>,<num_units>:<latency>:<initiation>,<ID_OC_SPEC>:<OC_EX_SPEC>,<NAME>}
-specialized_unit_5         0,4,4,4,4,BRA # specialized unit config {<enabled>,<num_units>:<latency>:<initiation>,<ID_OC_SPEC>:<OC_EX_SPEC>,<NAME>}
-specialized_unit_6         0,4,4,4,4,BRA # specialized unit config {<enabled>,<num_units>:<latency>:<initiation>,<ID_OC_SPEC>:<OC_EX_SPEC>,<NAME>}
-specialized_unit_7         0,4,4,4,4,BRA # specialized unit config {<enabled>,<num_units>:<latency>:<initiation>,<ID_OC_SPEC>:<OC_EX_SPEC>,<NAME>}
-specialized_unit_8         0,4,4,4,4,BRA # specialized unit config {<enabled>,<num_units>:<latency>:<initiation>,<ID_OC_SPEC>:<OC_EX_SPEC>,<NAME>}
-gpgpu_perf_sim_memcpy                    1 # Fill the L2 cache on memcpy
-gpgpu_simple_dram_model                    0 # simple_dram_model with fixed latency and BW
-gpgpu_dram_scheduler                    1 # 0 = fifo, 1 = FR-FCFS (defaul)
-gpgpu_dram_partition_queues          64:64:64:64 # i2$:$2d:d2$:$2i
-l2_ideal                               0 # Use a ideal L2 cache that always hit
-gpgpu_cache:dl2     S:32:128:24,L:B:m:L:P,A:192:4,32:0,32 # unified banked L2 data cache config  {<nsets>:<bsize>:<assoc>,<rep>:<wr>:<alloc>:<wr_alloc>,<mshr>:<N>:<merge>,<mq>}
-gpgpu_cache:dl2_texture_only                    0 # L2 cache used for texture only
-gpgpu_n_mem                           32 # number of memory modules (e.g. memory controllers) in gpu
-gpgpu_n_sub_partition_per_mchannel                    2 # number of memory subpartition in each memory module
-gpgpu_n_mem_per_ctrlr                    1 # number of memory chips per memory controller
-gpgpu_memlatency_stat                   14 # track and display latency statistics 0x2 enables MC, 0x4 enables queue logs
-gpgpu_frfcfs_dram_sched_queue_size                   64 # 0 = unlimited (default); # entries per chip
-gpgpu_dram_return_queue_size                  192 # 0 = unlimited (default); # entries per chip
-gpgpu_dram_buswidth                   16 # default = 4 bytes (8 bytes per cycle at DDR)
-gpgpu_dram_burst_length                    2 # Burst length of each DRAM request (default = 4 data bus cycle)
-dram_data_command_freq_ratio                    2 # Frequency ratio between DRAM data bus and command bus (default = 2 times, i.e. DDR)
-gpgpu_dram_timing_opt nbk=16:CCD=1:RRD=3:RCD=12:RAS=28:RP=12:RC=40: CL=12:WL=2:CDLR=3:WR=10:nbkgrp=4:CCDL=2:RTPL=3 # DRAM timing parameters = {nbk:tCCD:tRRD:tRCD:tRAS:tRP:tRC:CL:WL:tCDLR:tWR:nbkgrp:tCCDL:tRTPL}
-gpgpu_l2_rop_latency                  160 # ROP queue latency (default 85)
-dram_latency                         200 # DRAM latency (default 30)
-dram_write_latency                   600 # DRAM write latency (default 100)
-dram_dual_bus_interface                    1 # dual_bus_interface (default = 0) 
-dram_bnk_indexing_policy                    0 # dram_bnk_indexing_policy (0 = normal indexing, 1 = Xoring with the higher bits) (Default = 0)
-dram_bnkgrp_indexing_policy                    1 # dram_bnkgrp_indexing_policy (0 = take higher bits, 1 = take lower bits) (Default = 0)
-dram_seperate_write_queue_enable                    0 # Seperate_Write_Queue_Enable
-dram_write_queue_size             32:28:16 # Write_Queue_Size
-dram_elimnate_rw_turnaround                    0 # elimnate_rw_turnaround i.e set tWTR and tRTW = 0
-icnt_flit_size                        40 # icnt_flit_size
-gpgpu_mem_addr_mapping dramid@8;00000000.00000000.00000000.00000000.0000RRRR.RRRRRRRR.RBBBCCCB.CCCSSSSS # mapping memory address to dram model {dramid@<start bit>;<memory address map>}
-gpgpu_mem_addr_test                    0 # run sweep test to check address mapping for aliased address
-gpgpu_mem_address_mask                    1 # 0 = old addressing mask, 1 = new addressing mask, 2 = new add. mask + flipped bank sel and chip sel bits
-gpgpu_memory_partition_indexing                    0 # 0 = no indexing, 1 = bitwise xoring, 2 = IPoly, 3 = custom indexing
-gpuwattch_xml_file         gpuwattch.xml # GPUWattch XML file
-power_simulation_enabled                    0 # Turn on power simulator (1=On, 0=Off)
-power_per_cycle_dump                    0 # Dump detailed power output each cycle
-power_trace_enabled                    0 # produce a file for the power trace (1=On, 0=Off)
-power_trace_zlevel                     6 # Compression level of the power trace output log (0=no comp, 9=highest)
-steady_power_levels_enabled                    0 # produce a file for the steady power levels (1=On, 0=Off)
-steady_state_definition                  8:4 # allowed deviation:number of samples
-gpgpu_max_cycle                        0 # terminates gpu simulation early (0 = no limit)
-gpgpu_max_insn                         0 # terminates gpu simulation early (0 = no limit)
-gpgpu_max_cta                          0 # terminates gpu simulation early (0 = no limit)
-gpgpu_max_completed_cta                 1000 # terminates gpu simulation early (0 = no limit)
-gpgpu_runtime_stat                   500 # display runtime statistics such as dram utilization {<freq>:<flag>}
-liveness_message_freq                    1 # Minimum number of seconds between simulation liveness messages (0 = always print)
-gpgpu_compute_capability_major                    7 # Major compute capability version number
-gpgpu_compute_capability_minor                    0 # Minor compute capability version number
-gpgpu_flush_l1_cache                    1 # Flush L1 cache at the end of each kernel call
-gpgpu_flush_l2_cache                    0 # Flush L2 cache at the end of each kernel call
-gpgpu_deadlock_detect                    1 # Stop the simulation at deadlock (1=on (default), 0=off)
-gpgpu_ptx_instruction_classification                    0 # if enabled will classify ptx instruction types per kernel (Max 255 kernels now)
-gpgpu_ptx_sim_mode                     0 # Select between Performance (default) or Functional simulation (1)
-gpgpu_clock_domains 1132.0:1132.0:1132.0:850.0 # Clock Domain Frequencies in MhZ {<Core Clock>:<ICNT Clock>:<L2 Clock>:<DRAM Clock>}
-gpgpu_max_concurrent_kernel                    8 # maximum kernels that can run concurrently on GPU
-gpgpu_cflog_interval                    0 # Interval between each snapshot in control flow logger
-visualizer_enabled               200f3ff8827e85c83ff3eefb99f59c8c  /home/pli11/Videos/parboil_benchmark/parboil/benchmarks/lbm/build/nvm_default/lbm
Extracting PTX file and ptxas options    1: lbm.1.sm_70.ptx -arch=sm_70
Extracting PTX file and ptxas options    2: lbm.2.sm_70.ptx -arch=sm_70
      0 # Turn on visualizer output (1=On, 0=Off)
-visualizer_outputfile                 NULL # Specifies the output log file for visualizer
-visualizer_zlevel                      6 # Compression level of the visualizer output log (0=no comp, 9=highest)
-gpgpu_stack_size_limit                 1024 # GPU thread stack size
-gpgpu_heap_size_limit              8388608 # GPU malloc heap size 
-gpgpu_runtime_sync_depth_limit                    2 # GPU device runtime synchronize depth
-gpgpu_runtime_pending_launch_count_limit                 2048 # GPU device runtime pending launch count
-trace_enabled                          0 # Turn on traces
-trace_components                    none # comma seperated list of traces to enable. Complete list found in trace_streams.tup. Default none
-trace_sampling_core                    0 # The core which is printed using CORE_DPRINTF. Default 0
-trace_sampling_memory_partition                   -1 # The memory partition which is printed using MEMPART_DPRINTF. Default -1 (i.e. all)
-enable_ptx_file_line_stats                    1 # Turn on PTX source line statistic profiling. (1 = On)
-ptx_line_stats_filename gpgpu_inst_stats.txt # Output file for PTX source line statistics.
-gpgpu_kernel_launch_latency                 5000 # Kernel launch latency in cycles. Default: 0
-gpgpu_cdp_enabled                      0 # Turn on CDP
-gpgpu_TB_launch_latency                    0 # thread block launch latency in cycles. Default: 0
DRAM Timing Options:
nbk                                    16 # number of banks
CCD                                     1 # column to column delay
RRD                                     3 # minimal delay between activation of rows in different banks
RCD                                    12 # row to column delay
RAS                                    28 # time needed to activate row
RP                                     12 # time needed to precharge (deactivate) row
RC                                     40 # row cycle time
CDLR                                    3 # switching from write to read (changes tWTR)
WR                                     10 # last data-in to row precharge
CL                                     12 # CAS latency
WL                                      2 # Write latency
nbkgrp                                  4 # number of bank groups
CCDL                                    2 # column to column delay between accesses to different bank groups
RTPL                                    3 # read to precharge delay between accesses to different bank groups
Total number of memory sub partition = 64
addr_dec_mask[CHIP]  = 0000000000001f00 	high:13 low:8
addr_dec_mask[BK]    = 00000000000e2000 	high:20 low:13
addr_dec_mask[ROW]   = 00000001fff00000 	high:33 low:20
addr_dec_mask[COL]   = 000000000001c0ff 	high:17 low:0
addr_dec_mask[BURST] = 000000000000001f 	high:5 low:0
sub_partition_id_mask = 0000000000002000
GPGPU-Sim uArch: clock freqs: 1132000000.000000:1132000000.000000:1132000000.000000:850000000.000000
GPGPU-Sim uArch: clock periods: 0.00000000088339222615:0.00000000088339222615:0.00000000088339222615:0.00000000117647058824
*** Initializing Memory Statistics ***
GPGPU-Sim uArch: performance model initialization complete.
self exe links to: /home/pli11/Videos/parboil_benchmark/parboil/benchmarks/lbm/build/nvm_default/lbm
self exe links to: /home/pli11/Videos/parboil_benchmark/parboil/benchmarks/lbm/build/nvm_default/lbm
10.1
GPGPU-Sim PTX: __cudaRegisterFatBinary, fat_cubin_handle = 1, filename=default
self exe links to: /home/pli11/Videos/parboil_benchmark/parboil/benchmarks/lbm/build/nvm_default/lbm
Running md5sum using "md5sum /home/pli11/Videos/parboil_benchmark/parboil/benchmarks/lbm/build/nvm_default/lbm "
self exe links to: /home/pli11/Videos/parboil_benchmark/parboil/benchmarks/lbm/build/nvm_default/lbm
Extracting specific PTX file named lbm.1.sm_70.ptx 
Extracting specific PTX file named lbm.2.sm_70.ptx 
self exe links to: /home/pli11/Videos/parboil_benchmark/parboil/benchmarks/lbm/build/nvm_default/lbm
self exe links to: /home/pli11/Videos/parboil_benchmark/parboil/benchmarks/lbm/build/nvm_default/lbm
10.1
GPGPU-Sim PTX: __cudaRegisterFatBinary, fat_cubin_handle = 2, filename=default
GPGPU-Sim PTX: __cudaRegisterFunction _Z32performStreamCollide_kernel_nvm2PfS_ : hostFun 0x0x405bab, fat_cubin_handle = 2
GPGPU-Sim PTX: Parsing lbm.1.sm_70.ptx
GPGPU-Sim PTX: finished parsing EMBEDDED .ptx file lbm.1.sm_70.ptx
GPGPU-Sim PTX: Parsing lbm.2.sm_70.ptx
GPGPU-Sim PTX: allocating global region for "NVM_log" from 0x100 to 0x4000100 (global memory space)
GPGPU-Sim PTX: allocating global region for "NVM_flag" from 0x4000100 to 0x4400100 (global memory space)
GPGPU-Sim PTX: instruction assembly for function '_Z32performStreamCollide_kernel_nvmgPfS_'...   done.
GPGPU-Sim PTX: instruction assembly for function '_Z32performStreamCollide_kernel_nvmiPfS_'...   done.
GPGPU-Sim PTX: instruction assembly for function '_Z32performStreamCollide_kernel_nvm3PfS_'...   done.
GPGPU-Sim PTX: instruction assembly for function '_Z32performStreamCollide_kernel_nvm4PfS_'...   done.
GPGPU-Sim PTX: instruction assembly for function '_Z32performStreamCollide_kernel_nvm5PfS_'...   done.
GPGPU-Sim PTX: instruction assembly for function '_Z32performStreamCollide_kernel_nvm6PfS_'...   done.
GPGPU-Sim PTX: instruction assembly for function '_Z27performStreamCollide_kernelPfS_'...   done.
GPGPU-Sim PTX: instruction assembly for function '_Z32performStreamCollide_kernel_nvmoPfS_'...   done.
GPGPU-Sim PTX: instruction assembly for function '_Z32performStreamCollide_kernel_nvmwPfS_'...   done.
GPGPU-Sim PTX: instruction assembly for function '_Z32performStreamCollide_kernel_nvmqPfS_'...   done.
GPGPU-Sim PTX: instruction assembly for function '_Z32performStreamCollide_kernel_nvmuPfS_'...   done.
GPGPU-Sim PTX: instruction assembly for function '_Z32performStreamCollide_kernel_nvmbPfS_'...   done.
GPGPU-Sim PTX: instruction assembly for function '_Z32performStreamCollide_kernel_nvmjPfS_'...   done.
GPGPU-Sim PTX: instruction assembly for function '_Z32performStreamCollide_kernel_nvmdPfS_'...   done.
GPGPU-Sim PTX: instruction assembly for function '_Z32performStreamCollide_kernel_nvmlPfS_'...   done.
GPGPU-Sim PTX: instruction assembly for function '_Z32performStreamCollide_kernel_nvm1PfS_'...   done.
GPGPU-Sim PTX: instruction assembly for function '_Z32performStreamCollide_kernel_nvm2PfS_'...   done.
GPGPU-Sim PTX: finished parsing EMBEDDED .ptx file lbm.2.sm_70.ptx
GPGPU-Sim PTX: loading globals with explicit initializers... 
GPGPU-Sim PTX: finished loading globals (0 bytes total).
GPGPU-Sim PTX: loading constants with explicit initializers...  done.
GPGPU-Sim PTX: Loading PTXInfo from lbm.1.sm_70.ptx
GPGPU-Sim PTX: Loading PTXInfo from lbm.2.sm_70.ptx
GPGPU-Sim PTX: Kernel '_Z32performStreamCollide_kernel_nvm2PfS_' : regs=44, lmem=0, smem=0, cmem=368
GPGPU-Sim PTX: Kernel '_Z32performStreamCollide_kernel_nvm1PfS_' : regs=44, lmem=0, smem=0, cmem=368
GPGPU-Sim PTX: Kernel '_Z32performStreamCollide_kernel_nvmlPfS_' : regs=40, lmem=0, smem=0, cmem=368
GPGPU-Sim PTX: Kernel '_Z32performStreamCollide_kernel_nvmdPfS_' : regs=40, lmem=0, smem=0, cmem=368
GPGPU-Sim PTX: Kernel '_Z32performStreamCollide_kernel_nvmjPfS_' : regs=40, lmem=0, smem=0, cmem=368
GPGPU-Sim PTX: Kernel '_Z32performStreamCollide_kernel_nvmbPfS_' : regs=40, lmem=0, smem=0, cmem=368
GPGPU-Sim PTX: Kernel '_Z32performStreamCollide_kernel_nvmuPfS_' : regs=40, lmem=0, smem=0, cmem=368
GPGPU-Sim PTX: Kernel '_Z32performStreamCollide_kernel_nvmqPfS_' : regs=40, lmem=0, smem=0, cmem=368
GPGPU-Sim PTX: Kernel '_Z32performStreamCollide_kernel_nvmwPfS_' : regs=40, lmem=0, smem=0, cmem=368
GPGPU-Sim PTX: Kernel '_Z32performStreamCollide_kernel_nvmoPfS_' : regs=40, lmem=0, smem=0, cmem=368
GPGPU-Sim PTX: Kernel '_Z27performStreamCollide_kernelPfS_' : regs=40, lmem=0, smem=0, cmem=368
GPGPU-Sim PTX: Kernel '_Z32performStreamCollide_kernel_nvm6PfS_' : regs=44, lmem=0, smem=0, cmem=368
GPGPU-Sim PTX: Kernel '_Z32performStreamCollide_kernel_nvm5PfS_' : regs=44, lmem=0, smem=0, cmem=368
GPGPU-Sim PTX: Kernel '_Z32performStreamCollide_kernel_nvm4PfS_' : regs=56, lmem=0, smem=0, cmem=368
GPGPU-Sim PTX: Kernel '_Z32performStreamCollide_kernel_nvm3PfS_' : regs=56, lmem=0, smem=0, cmem=368
GPGPU-Sim PTX: Kernel '_Z32performStreamCollide_kernel_nvmiPfS_' : regs=48, lmem=0, smem=0, cmem=368
GPGPU-Sim PTX: Kernel '_Z32performStreamCollide_kernel_nvmgPfS_' : regs=48, lmem=0, smem=0, cmem=368
GPGPU-Sim PTX: __cudaRegisterFunction _Z32performStreamCollide_kernel_nvm1PfS_ : hostFun 0x0x405a6b, fat_cubin_handle = 2
GPGPU-Sim PTX: __cudaRegisterFunction _Z32performStreamCollide_kernel_nvmlPfS_ : hostFun 0x0x40592b, fat_cubin_handle = 2
GPGPU-Sim PTX: __cudaRegisterFunction _Z32performStreamCollide_kernel_nvmdPfS_ : hostFun 0x0x4057eb, fat_cubin_handle = 2
GPGPU-Sim PTX: __cudaRegisterFunction _Z32performStreamCollide_kernel_nvmjPfS_ : hostFun 0x0x4056ab, fat_cubin_handle = 2
GPGPU-Sim PTX: __cudaRegisterFunction _Z32performStreamCollide_kernel_nvmbPfS_ : hostFun 0x0x40556b, fat_cubin_handle = 2
GPGPU-Sim PTX: __cudaRegisterFunction _Z32performStreamCollide_kernel_nvmuPfS_ : hostFun 0x0x40542b, fat_cubin_handle = 2
GPGPU-Sim PTX: __cudaRegisterFunction _Z32performStreamCollide_kernel_nvmqPfS_ : hostFun 0x0x4052eb, fat_cubin_handle = 2
GPGPU-Sim PTX: __cudaRegisterFunction _Z32performStreamCollide_kernel_nvmwPfS_ : hostFun 0x0x4051ab, fat_cubin_handle = 2
GPGPU-Sim PTX: __cudaRegisterFunction _Z32performStreamCollide_kernel_nvmoPfS_ : hostFun 0x0x40506b, fat_cubin_handle = 2
GPGPU-Sim PTX: __cudaRegisterFunction _Z27performStreamCollide_kernelPfS_ : hostFun 0x0x404f2b, fat_cubin_handle = 2
GPGPU-Sim PTX: __cudaRegisterFunction _Z32performStreamCollide_kernel_nvm6PfS_ : hostFun 0x0x404deb, fat_cubin_handle = 2
GPGPU-Sim PTX: __cudaRegisterFunction _Z32performStreamCollide_kernel_nvm5PfS_ : hostFun 0x0x404cab, fat_cubin_handle = 2
GPGPU-Sim PTX: __cudaRegisterFunction _Z32performStreamCollide_kernel_nvm4PfS_ : hostFun 0x0x404b6b, fat_cubin_handle = 2
GPGPU-Sim PTX: __cudaRegisterFunction _Z32performStreamCollide_kernel_nvm3PfS_ : hostFun 0x0x404a2b, fat_cubin_handle = 2
GPGPU-Sim PTX: __cudaRegisterFunction _Z32performStreamCollide_kernel_nvmiPfS_ : hostFun 0x0x4048eb, fat_cubin_handle = 2
GPGPU-Sim PTX: __cudaRegisterFunction _Z32performStreamCollide_kernel_nvmgPfS_ : hostFun 0x0x4047ab, fat_cubin_handle = 2
GPGPU-Sim PTX: __cudaRegisterVar: hostVar = 0x60f380; deviceAddress = NVM_log; deviceName = NVM_log
GPGPU-Sim PTX: __cudaRegisterVar: Registering const memory space of 67108864 bytes
GPGPU-Sim PTX registering global NVM_log hostVar to name mapping
GPGPU-Sim PTX: __cudaRegisterVar: hostVar = 0x460f380; deviceAddress = NVM_flag; deviceName = NVM_flag
GPGPU-Sim PTX: __cudaRegisterVar: Registering const memory space of 4194304 bytes
GPGPU-Sim PTX registering global NVM_flag hostVar to name mapping
LBM_allocateGrid: allocated 185.2 MByte
MAIN_printInfo:
	grid size      : 120 x 120 x 150 = 2.16 * 10^6 Cells
	nTimeSteps     : 3000
	result file    : /home/pli11/Videos/parboil_benchmark/parboil/benchmarks/lbm/run/long/reference.dat
	action         : store
	simulation type: lid-driven cavity
	obstacle file  : /home/pli11/Videos/parboil_benchmark/parboil/datasets/lbm/long/input/120_120_150_ldc.of

LBM_allocateGrid: allocated 185.2 MByte
LBM_allocateGrid: allocated 185.2 MByte
LBM_showGridStatistics:
	nObstacleCells:  343321 nAccelCells:   26912 nFluidCells: 1789767
	minRho:   1.0000 maxRho:   1.0000 mass: 2.160000e+06
	minU: 0.000000e+00 maxU: 0.000000e+00

event update
GPGPU-Sim: synchronize waiting for inactive GPU simulation
GPGPU-Sim API: Stream Manager State
GPGPU-Sim: detected inactive GPU simulation thread
GPGPU-Sim PTX: Setting up arguments for 8 bytes starting at 0x7ffc80526268..
GPGPU-Sim PTX: Setting up arguments for 8 bytes starting at 0x7ffc80526260..

GPGPU-Sim PTX: cudaLaunch for 0x0x404cab (mode=performance simulation) on stream 0
GPGPU-Sim PTX: finding reconvergence points for '_Z32performStreamCollide_kernel_nvm5PfS_'...
GPGPU-Sim PTX: Finding dominators for '_Z32performStreamCollide_kernel_nvm5PfS_'...
GPGPU-Sim PTX: Finding immediate dominators for '_Z32performStreamCollide_kernel_nvm5PfS_'...
GPGPU-Sim PTX: Finding postdominators for '_Z32performStreamCollide_kernel_nvm5PfS_'...
GPGPU-Sim PTX: Finding immediate postdominators for '_Z32performStreamCollide_kernel_nvm5PfS_'...
GPGPU-Sim PTX: pre-decoding instructions for '_Z32performStreamCollide_kernel_nvm5PfS_'...
GPGPU-Sim PTX: reconvergence points for _Z32performStreamCollide_kernel_nvm5PfS_...
GPGPU-Sim PTX:  1 (potential) branch divergence @  PC=0x2e90 (lbm.2.sm_70.ptx:2037) @%p2 bra BB4_1;
GPGPU-Sim PTX:    immediate post dominator      @  PC=0x3428 (lbm.2.sm_70.ptx:2222) mov.u32 %r13, %ntid.x;
GPGPU-Sim PTX:  2 (potential) branch divergence @  PC=0x2e98 (lbm.2.sm_70.ptx:2038) bra.uni BB4_2;
GPGPU-Sim PTX:    immediate post dominator      @  PC=0x2ef0 (lbm.2.sm_70.ptx:2053) add.f32 %f58, %f219, %f217;
GPGPU-Sim PTX:  3 (potential) branch divergence @  PC=0x2ee8 (lbm.2.sm_70.ptx:2050) bra.uni BB4_3;
GPGPU-Sim PTX:    immediate post dominator      @  PC=0x3428 (lbm.2.sm_70.ptx:2222) mov.u32 %r13, %ntid.x;
GPGPU-Sim PTX:  4 (potential) branch divergence @  PC=0x3470 (lbm.2.sm_70.ptx:2231) @%p4 bra BB4_5;
GPGPU-Sim PTX:    immediate post dominator      @  PC=0x34e8 (lbm.2.sm_70.ptx:2255) setp.eq.s32%p1, %r7, %r8;
GPGPU-Sim PTX:  5 (potential) branch divergence @  PC=0x3870 (lbm.2.sm_70.ptx:2408) @!%p1 bra BB4_7;
GPGPU-Sim PTX:    immediate post dominator      @  PC=0x38e8 (lbm.2.sm_70.ptx:2433) ret;
GPGPU-Sim PTX:  6 (potential) branch divergence @  PC=0x3878 (lbm.2.sm_70.ptx:2409) bra.uni BB4_6;
GPGPU-Sim PTX:    immediate post dominator      @  PC=0x3880 (lbm.2.sm_70.ptx:2412) mov.u32 %r80, %nctaid.x;
GPGPU-Sim PTX: ... end of reconvergence points for _Z32performStreamCollide_kernel_nvm5PfS_
GPGPU-Sim PTX: ... done pre-decoding instructions for '_Z32performStreamCollide_kernel_nvm5PfS_'.
GPGPU-Sim PTX: pushing kernel '_Z32performStreamCollide_kernel_nvm5PfS_' to stream 0, gridDim= (120,150,1) blockDim = (120,1,1) 
GPGPU-Sim uArch: Shader 0 bind to kernel 1 '_Z32performStreamCollide_kernel_nvm5PfS_'
GPGPU-Sim uArch: CTA/core = 11, limited by: regs
GPGPU-Sim: Reconfigure L1 cache to 128KB
GPGPU-Sim uArch: Shader 1 bind to kernel 1 '_Z32performStreamCollide_kernel_nvm5PfS_'
GPGPU-Sim uArch: Shader 2 bind to kernel 1 '_Z32performStreamCollide_kernel_nvm5PfS_'
GPGPU-Sim uArch: Shader 3 bind to kernel 1 '_Z32performStreamCollide_kernel_nvm5PfS_'
GPGPU-Sim uArch: Shader 4 bind to kernel 1 '_Z32performStreamCollide_kernel_nvm5PfS_'
GPGPU-Sim uArch: Shader 5 bind to kernel 1 '_Z32performStreamCollide_kernel_nvm5PfS_'
GPGPU-Sim uArch: Shader 6 bind to kernel 1 '_Z32performStreamCollide_kernel_nvm5PfS_'
GPGPU-Sim uArch: Shader 7 bind to kernel 1 '_Z32performStreamCollide_kernel_nvm5PfS_'
GPGPU-Sim uArch: Shader 8 bind to kernel 1 '_Z32performStreamCollide_kernel_nvm5PfS_'
GPGPU-Sim uArch: Shader 9 bind to kernel 1 '_Z32performStreamCollide_kernel_nvm5PfS_'
GPGPU-Sim uArch: Shader 10 bind to kernel 1 '_Z32performStreamCollide_kernel_nvm5PfS_'
GPGPU-Sim uArch: Shader 11 bind to kernel 1 '_Z32performStreamCollide_kernel_nvm5PfS_'
GPGPU-Sim uArch: Shader 12 bind to kernel 1 '_Z32performStreamCollide_kernel_nvm5PfS_'
GPGPU-Sim uArch: Shader 13 bind to kernel 1 '_Z32performStreamCollide_kernel_nvm5PfS_'
GPGPU-Sim uArch: Shader 14 bind to kernel 1 '_Z32performStreamCollide_kernel_nvm5PfS_'
GPGPU-Sim uArch: Shader 15 bind to kernel 1 '_Z32performStreamCollide_kernel_nvm5PfS_'
GPGPU-Sim uArch: Shader 16 bind to kernel 1 '_Z32performStreamCollide_kernel_nvm5PfS_'
GPGPU-Sim uArch: Shader 17 bind to kernel 1 '_Z32performStreamCollide_kernel_nvm5PfS_'
GPGPU-Sim uArch: Shader 18 bind to kernel 1 '_Z32performStreamCollide_kernel_nvm5PfS_'
GPGPU-Sim uArch: Shader 19 bind to kernel 1 '_Z32performStreamCollide_kernel_nvm5PfS_'
GPGPU-Sim uArch: Shader 20 bind to kernel 1 '_Z32performStreamCollide_kernel_nvm5PfS_'
GPGPU-Sim uArch: Shader 21 bind to kernel 1 '_Z32performStreamCollide_kernel_nvm5PfS_'
GPGPU-Sim uArch: Shader 22 bind to kernel 1 '_Z32performStreamCollide_kernel_nvm5PfS_'
GPGPU-Sim uArch: Shader 23 bind to kernel 1 '_Z32performStreamCollide_kernel_nvm5PfS_'
GPGPU-Sim uArch: Shader 24 bind to kernel 1 '_Z32performStreamCollide_kernel_nvm5PfS_'
GPGPU-Sim uArch: Shader 25 bind to kernel 1 '_Z32performStreamCollide_kernel_nvm5PfS_'
GPGPU-Sim uArch: Shader 26 bind to kernel 1 '_Z32performStreamCollide_kernel_nvm5PfS_'
GPGPU-Sim uArch: Shader 27 bind to kernel 1 '_Z32performStreamCollide_kernel_nvm5PfS_'
GPGPU-Sim uArch: Shader 28 bind to kernel 1 '_Z32performStreamCollide_kernel_nvm5PfS_'
GPGPU-Sim uArch: Shader 29 bind to kernel 1 '_Z32performStreamCollide_kernel_nvm5PfS_'
GPGPU-Sim uArch: Shader 30 bind to kernel 1 '_Z32performStreamCollide_kernel_nvm5PfS_'
GPGPU-Sim uArch: Shader 31 bind to kernel 1 '_Z32performStreamCollide_kernel_nvm5PfS_'
GPGPU-Sim uArch: Shader 32 bind to kernel 1 '_Z32performStreamCollide_kernel_nvm5PfS_'
GPGPU-Sim uArch: Shader 33 bind to kernel 1 '_Z32performStreamCollide_kernel_nvm5PfS_'
GPGPU-Sim uArch: Shader 34 bind to kernel 1 '_Z32performStreamCollide_kernel_nvm5PfS_'
GPGPU-Sim uArch: Shader 35 bind to kernel 1 '_Z32performStreamCollide_kernel_nvm5PfS_'
GPGPU-Sim uArch: Shader 36 bind to kernel 1 '_Z32performStreamCollide_kernel_nvm5PfS_'
GPGPU-Sim uArch: Shader 37 bind to kernel 1 '_Z32performStreamCollide_kernel_nvm5PfS_'
GPGPU-Sim uArch: Shader 38 bind to kernel 1 '_Z32performStreamCollide_kernel_nvm5PfS_'
GPGPU-Sim uArch: Shader 39 bind to kernel 1 '_Z32performStreamCollide_kernel_nvm5PfS_'
GPGPU-Sim uArch: Shader 40 bind to kernel 1 '_Z32performStreamCollide_kernel_nvm5PfS_'
GPGPU-Sim uArch: Shader 41 bind to kernel 1 '_Z32performStreamCollide_kernel_nvm5PfS_'
GPGPU-Sim uArch: Shader 42 bind to kernel 1 '_Z32performStreamCollide_kernel_nvm5PfS_'
GPGPU-Sim uArch: Shader 43 bind to kernel 1 '_Z32performStreamCollide_kernel_nvm5PfS_'
GPGPU-Sim uArch: Shader 44 bind to kernel 1 '_Z32performStreamCollide_kernel_nvm5PfS_'
GPGPU-Sim uArch: Shader 45 bind to kernel 1 '_Z32performStreamCollide_kernel_nvm5PfS_'
GPGPU-Sim uArch: Shader 46 bind to kernel 1 '_Z32performStreamCollide_kernel_nvm5PfS_'
GPGPU-Sim uArch: Shader 47 bind to kernel 1 '_Z32performStreamCollide_kernel_nvm5PfS_'
GPGPU-Sim uArch: Shader 48 bind to kernel 1 '_Z32performStreamCollide_kernel_nvm5PfS_'
GPGPU-Sim uArch: Shader 49 bind to kernel 1 '_Z32performStreamCollide_kernel_nvm5PfS_'
GPGPU-Sim uArch: Shader 50 bind to kernel 1 '_Z32performStreamCollide_kernel_nvm5PfS_'
GPGPU-Sim uArch: Shader 51 bind to kernel 1 '_Z32performStreamCollide_kernel_nvm5PfS_'
GPGPU-Sim uArch: Shader 52 bind to kernel 1 '_Z32performStreamCollide_kernel_nvm5PfS_'
GPGPU-Sim uArch: Shader 53 bind to kernel 1 '_Z32performStreamCollide_kernel_nvm5PfS_'
GPGPU-Sim uArch: Shader 54 bind to kernel 1 '_Z32performStreamCollide_kernel_nvm5PfS_'
GPGPU-Sim uArch: Shader 55 bind to kernel 1 '_Z32performStreamCollide_kernel_nvm5PfS_'
GPGPU-Sim uArch: Shader 56 bind to kernel 1 '_Z32performStreamCollide_kernel_nvm5PfS_'
GPGPU-Sim uArch: Shader 57 bind to kernel 1 '_Z32performStreamCollide_kernel_nvm5PfS_'
GPGPU-Sim uArch: Shader 58 bind to kernel 1 '_Z32performStreamCollide_kernel_nvm5PfS_'
GPGPU-Sim uArch: Shader 59 bind to kernel 1 '_Z32performStreamCollide_kernel_nvm5PfS_'
GPGPU-Sim uArch: Shader 60 bind to kernel 1 '_Z32performStreamCollide_kernel_nvm5PfS_'
GPGPU-Sim uArch: Shader 61 bind to kernel 1 '_Z32performStreamCollide_kernel_nvm5PfS_'
GPGPU-Sim uArch: Shader 62 bind to kernel 1 '_Z32performStreamCollide_kernel_nvm5PfS_'
GPGPU-Sim uArch: Shader 63 bind to kernel 1 '_Z32performStreamCollide_kernel_nvm5PfS_'
GPGPU-Sim uArch: Shader 64 bind to kernel 1 '_Z32performStreamCollide_kernel_nvm5PfS_'
GPGPU-Sim uArch: Shader 65 bind to kernel 1 '_Z32performStreamCollide_kernel_nvm5PfS_'
GPGPU-Sim uArch: Shader 66 bind to kernel 1 '_Z32performStreamCollide_kernel_nvm5PfS_'
GPGPU-Sim uArch: Shader 67 bind to kernel 1 '_Z32performStreamCollide_kernel_nvm5PfS_'
GPGPU-Sim uArch: Shader 68 bind to kernel 1 '_Z32performStreamCollide_kernel_nvm5PfS_'
GPGPU-Sim uArch: Shader 69 bind to kernel 1 '_Z32performStreamCollide_kernel_nvm5PfS_'
GPGPU-Sim uArch: Shader 70 bind to kernel 1 '_Z32performStreamCollide_kernel_nvm5PfS_'
GPGPU-Sim uArch: Shader 71 bind to kernel 1 '_Z32performStreamCollide_kernel_nvm5PfS_'
GPGPU-Sim uArch: Shader 72 bind to kernel 1 '_Z32performStreamCollide_kernel_nvm5PfS_'
GPGPU-Sim uArch: Shader 73 bind to kernel 1 '_Z32performStreamCollide_kernel_nvm5PfS_'
GPGPU-Sim uArch: Shader 74 bind to kernel 1 '_Z32performStreamCollide_kernel_nvm5PfS_'
GPGPU-Sim uArch: Shader 75 bind to kernel 1 '_Z32performStreamCollide_kernel_nvm5PfS_'
GPGPU-Sim uArch: Shader 76 bind to kernel 1 '_Z32performStreamCollide_kernel_nvm5PfS_'
GPGPU-Sim uArch: Shader 77 bind to kernel 1 '_Z32performStreamCollide_kernel_nvm5PfS_'
GPGPU-Sim uArch: Shader 78 bind to kernel 1 '_Z32performStreamCollide_kernel_nvm5PfS_'
GPGPU-Sim uArch: Shader 79 bind to kernel 1 '_Z32performStreamCollide_kernel_nvm5PfS_'
kernel_name = _Z32performStreamCollide_kernel_nvm5PfS_ 
kernel_launch_uid = 1 
gpu_sim_cycle = 64428
gpu_sim_insn = 54956966
gpu_ipc =     852.9982
gpu_tot_sim_cycle = 64428
gpu_tot_sim_insn = 54956966
gpu_tot_ipc =     852.9982
gpu_tot_issued_cta = 1880
gpu_occupancy = 65.5361% 
gpu_tot_occupancy = 65.5361% 
max_total_param_size = 0
gpu_stall_dramfull = 1531604
gpu_stall_icnt2sh    = 0
partiton_level_parallism =      21.0606
partiton_level_parallism_total  =      21.0606
partiton_level_parallism_util =      25.6128
partiton_level_parallism_util_total  =      25.6128
L2_BW  =     754.4586 GB/Sec
L2_BW_total  =     754.4586 GB/Sec
gpu_total_sim_rate=93623
############## bottleneck_stats #############
cycles: core 64428, icnt 64428, l2 64428, dram 48378
gpu_ipc	852.998
gpu_tot_issued_cta = 1880, average cycles = 34
n_dram_writes	 0, n_dram_reads	 0
n_GLOBAL_ACC_R	 513287 
n_LOCAL_ACC_R	 0 
n_CONST_ACC_R	 0 
n_TEXTURE_ACC_R	 0 
n_GLOBAL_ACC_W	 0 
n_LOCAL_ACC_W	 0 
n_L1_WRBK_ACC	 0 
n_L2_WRBK_ACC	 87670 
n_L1_WR_ALLOC_R	 0 
n_L2_WR_ALLOC_R	 0 

n_sm	 80, n_schedulers	 4
scheduler util	0.093	80
L1D data util	0.746	80	0.872	16
L1D tag util	0.480	80	0.578	44
L2 data util	0.642	64	0.692	49
L2 tag util	0.328	64	0.368	49
n_l2_access	 1353878
icnt s2m util	0.000	0	0.000	49	flits per packet: -nan
icnt m2s util	0.000	0	0.000	49	flits per packet: -nan
sum=0
n_mem	 32
dram util	0.524	32	0.561	14

latency_l2_hit:	912881205, num_l2_reqs:	413097
L2 hit latency:	2209
latency_dram:	-1321325399, num_dram_reqs:	928420
DRAM latency:	3202

n_reg	65536, n_smem	98304, n_thread	2048, n_tb	32
reg file	0.945
smem size	0.000
thread slot	0.688
TB slot    	0.344
L1I tag util	0.190	80	0.222	16

n_mem_pipe	1, n_sp_pipe	4, n_sfu_pipe	4
mem pipe util	0.070	80	0.083	16
sp pipe util	0.065	80	0.077	51
sfu pipe util	0.003	80	0.004	51
ldst mem cycle	0.086	80	0.102	15

smem port	0.000	0

n_reg_bank	16
reg port	0.052	16	0.060	2
L1D tag util	0.480	80	0.578	44
L1D fill util	0.099	80	0.121	16
n_l1d_mshr	4096
L1D mshr util	0.096	80
n_l1d_missq	16
L1D missq util	0.435	80
L1D hit rate	0.000
L1D miss rate	0.388
L1D rsfail rate	0.612
L2 tag util	0.328	64	0.368	49
L2 fill util	0.124	64	0.134	33
n_l2_mshr	192
n_l2_missq	32
L2 mshr util	0.563	64	0.652	33
L2 missq util	0.006	64	0.007	16
L2 hit rate	0.305
L2 miss rate	0.692
L2 rsfail rate	0.003

dram activity	0.817	32	0.856	2

load trans eff	1.000
load trans sz	32.000
load_useful_bytes 17148000, load_transaction_bytes 17148000, icnt_m2s_bytes 0
n_gmem_load_insns 142910, n_gmem_load_accesses 535875
n_smem_access_insn 0, n_smem_accesses 0

tmp_counter/12	0.348

run 0.020, fetch 0.001, sync 0.456, control 0.000, data 0.481, struct 0.043
############ end_bottleneck_stats #############

========= Core cache stats =========
L1I_cache:
	L1I_total_cache_accesses = 0
	L1I_total_cache_misses = 0
	L1I_total_cache_pending_hits = 0
	L1I_total_cache_reservation_fails = 0
L1D_cache:
	L1D_cache_core[0]: Access = 12131, Miss = 12131, Miss_rate = 1.000, Pending_hits = 0, Reservation_fails = 17684
	L1D_cache_core[1]: Access = 13363, Miss = 13363, Miss_rate = 1.000, Pending_hits = 0, Reservation_fails = 14672
	L1D_cache_core[2]: Access = 11569, Miss = 11569, Miss_rate = 1.000, Pending_hits = 0, Reservation_fails = 16762
	L1D_cache_core[3]: Access = 12272, Miss = 12272, Miss_rate = 1.000, Pending_hits = 0, Reservation_fails = 20010
	L1D_cache_core[4]: Access = 11529, Miss = 11529, Miss_rate = 1.000, Pending_hits = 0, Reservation_fails = 16973
	L1D_cache_core[5]: Access = 11585, Miss = 11585, Miss_rate = 1.000, Pending_hits = 0, Reservation_fails = 20955
	L1D_cache_core[6]: Access = 13233, Miss = 13233, Miss_rate = 1.000, Pending_hits = 0, Reservation_fails = 23140
	L1D_cache_core[7]: Access = 12407, Miss = 12407, Miss_rate = 1.000, Pending_hits = 0, Reservation_fails = 16902
	L1D_cache_core[8]: Access = 12819, Miss = 12819, Miss_rate = 1.000, Pending_hits = 0, Reservation_fails = 15363
	L1D_cache_core[9]: Access = 11738, Miss = 11738, Miss_rate = 1.000, Pending_hits = 0, Reservation_fails = 19914
	L1D_cache_core[10]: Access = 11374, Miss = 11374, Miss_rate = 1.000, Pending_hits = 0, Reservation_fails = 17833
	L1D_cache_core[11]: Access = 11303, Miss = 11303, Miss_rate = 1.000, Pending_hits = 0, Reservation_fails = 19228
	L1D_cache_core[12]: Access = 13345, Miss = 13345, Miss_rate = 1.000, Pending_hits = 0, Reservation_fails = 16373
	L1D_cache_core[13]: Access = 9430, Miss = 9430, Miss_rate = 1.000, Pending_hits = 0, Reservation_fails = 17050
	L1D_cache_core[14]: Access = 12284, Miss = 12284, Miss_rate = 1.000, Pending_hits = 0, Reservation_fails = 20948
	L1D_cache_core[15]: Access = 13213, Miss = 13213, Miss_rate = 1.000, Pending_hits = 0, Reservation_fails = 18562
	L1D_cache_core[16]: Access = 14043, Miss = 14043, Miss_rate = 1.000, Pending_hits = 0, Reservation_fails = 17940
	L1D_cache_core[17]: Access = 13256, Miss = 13256, Miss_rate = 1.000, Pending_hits = 0, Reservation_fails = 16093
	L1D_cache_core[18]: Access = 13219, Miss = 13219, Miss_rate = 1.000, Pending_hits = 0, Reservation_fails = 17894
	L1D_cache_core[19]: Access = 10848, Miss = 10848, Miss_rate = 1.000, Pending_hits = 0, Reservation_fails = 22255
	L1D_cache_core[20]: Access = 11216, Miss = 11216, Miss_rate = 1.000, Pending_hits = 0, Reservation_fails = 23316
	L1D_cache_core[21]: Access = 12318, Miss = 12318, Miss_rate = 1.000, Pending_hits = 0, Reservation_fails = 20299
	L1D_cache_core[22]: Access = 12131, Miss = 12131, Miss_rate = 1.000, Pending_hits = 0, Reservation_fails = 17977
	L1D_cache_core[23]: Access = 11625, Miss = 11625, Miss_rate = 1.000, Pending_hits = 0, Reservation_fails = 17331
	L1D_cache_core[24]: Access = 11533, Miss = 11533, Miss_rate = 1.000, Pending_hits = 0, Reservation_fails = 23466
	L1D_cache_core[25]: Access = 11026, Miss = 11026, Miss_rate = 1.000, Pending_hits = 0, Reservation_fails = 18775
	L1D_cache_core[26]: Access = 11830, Miss = 11830, Miss_rate = 1.000, Pending_hits = 0, Reservation_fails = 18576
	L1D_cache_core[27]: Access = 11855, Miss = 11855, Miss_rate = 1.000, Pending_hits = 0, Reservation_fails = 18539
	L1D_cache_core[28]: Access = 11689, Miss = 11689, Miss_rate = 1.000, Pending_hits = 0, Reservation_fails = 21539
	L1D_cache_core[29]: Access = 10277, Miss = 10277, Miss_rate = 1.000, Pending_hits = 0, Reservation_fails = 18201
	L1D_cache_core[30]: Access = 11429, Miss = 11429, Miss_rate = 1.000, Pending_hits = 0, Reservation_fails = 16318
	L1D_cache_core[31]: Access = 13094, Miss = 13094, Miss_rate = 1.000, Pending_hits = 0, Reservation_fails = 18168
	L1D_cache_core[32]: Access = 11327, Miss = 11327, Miss_rate = 1.000, Pending_hits = 0, Reservation_fails = 20061
	L1D_cache_core[33]: Access = 11821, Miss = 11821, Miss_rate = 1.000, Pending_hits = 0, Reservation_fails = 17819
	L1D_cache_core[34]: Access = 11342, Miss = 11342, Miss_rate = 1.000, Pending_hits = 0, Reservation_fails = 21276
	L1D_cache_core[35]: Access = 11423, Miss = 11423, Miss_rate = 1.000, Pending_hits = 0, Reservation_fails = 21334
	L1D_cache_core[36]: Access = 11967, Miss = 11967, Miss_rate = 1.000, Pending_hits = 0, Reservation_fails = 19530
	L1D_cache_core[37]: Access = 13422, Miss = 13422, Miss_rate = 1.000, Pending_hits = 0, Reservation_fails = 17984
	L1D_cache_core[38]: Access = 11885, Miss = 11885, Miss_rate = 1.000, Pending_hits = 0, Reservation_fails = 19002
	L1D_cache_core[39]: Access = 11993, Miss = 11993, Miss_rate = 1.000, Pending_hits = 0, Reservation_fails = 22315
	L1D_cache_core[40]: Access = 11018, Miss = 11018, Miss_rate = 1.000, Pending_hits = 0, Reservation_fails = 19567
	L1D_cache_core[41]: Access = 11636, Miss = 11636, Miss_rate = 1.000, Pending_hits = 0, Reservation_fails = 20144
	L1D_cache_core[42]: Access = 11368, Miss = 11368, Miss_rate = 1.000, Pending_hits = 0, Reservation_fails = 19349
	L1D_cache_core[43]: Access = 13103, Miss = 13103, Miss_rate = 1.000, Pending_hits = 0, Reservation_fails = 20475
	L1D_cache_core[44]: Access = 12377, Miss = 12377, Miss_rate = 1.000, Pending_hits = 0, Reservation_fails = 24878
	L1D_cache_core[45]: Access = 12051, Miss = 12051, Miss_rate = 1.000, Pending_hits = 0, Reservation_fails = 16699
	L1D_cache_core[46]: Access = 12889, Miss = 12889, Miss_rate = 1.000, Pending_hits = 0, Reservation_fails = 18971
	L1D_cache_core[47]: Access = 11829, Miss = 11829, Miss_rate = 1.000, Pending_hits = 0, Reservation_fails = 19126
	L1D_cache_core[48]: Access = 12131, Miss = 12131, Miss_rate = 1.000, Pending_hits = 0, Reservation_fails = 19770
	L1D_cache_core[49]: Access = 12709, Miss = 12709, Miss_rate = 1.000, Pending_hits = 0, Reservation_fails = 17160
	L1D_cache_core[50]: Access = 13394, Miss = 13394, Miss_rate = 1.000, Pending_hits = 0, Reservation_fails = 13510
	L1D_cache_core[51]: Access = 12912, Miss = 12912, Miss_rate = 1.000, Pending_hits = 0, Reservation_fails = 15703
	L1D_cache_core[52]: Access = 11309, Miss = 11309, Miss_rate = 1.000, Pending_hits = 0, Reservation_fails = 20343
	L1D_cache_core[53]: Access = 11539, Miss = 11539, Miss_rate = 1.000, Pending_hits = 0, Reservation_fails = 14881
	L1D_cache_core[54]: Access = 11181, Miss = 11181, Miss_rate = 1.000, Pending_hits = 0, Reservation_fails = 16709
	L1D_cache_core[55]: Access = 11368, Miss = 11368, Miss_rate = 1.000, Pending_hits = 0, Reservation_fails = 20935
	L1D_cache_core[56]: Access = 11054, Miss = 11054, Miss_rate = 1.000, Pending_hits = 0, Reservation_fails = 20717
	L1D_cache_core[57]: Access = 10789, Miss = 10789, Miss_rate = 1.000, Pending_hits = 0, Reservation_fails = 18336
	L1D_cache_core[58]: Access = 11893, Miss = 11893, Miss_rate = 1.000, Pending_hits = 0, Reservation_fails = 20970
	L1D_cache_core[59]: Access = 11287, Miss = 11287, Miss_rate = 1.000, Pending_hits = 0, Reservation_fails = 17595
	L1D_cache_core[60]: Access = 12339, Miss = 12339, Miss_rate = 1.000, Pending_hits = 0, Reservation_fails = 18666
	L1D_cache_core[61]: Access = 12015, Miss = 12015, Miss_rate = 1.000, Pending_hits = 0, Reservation_fails = 16019
	L1D_cache_core[62]: Access = 12922, Miss = 12922, Miss_rate = 1.000, Pending_hits = 0, Reservation_fails = 21266
	L1D_cache_core[63]: Access = 12607, Miss = 12607, Miss_rate = 1.000, Pending_hits = 0, Reservation_fails = 23214
	L1D_cache_core[64]: Access = 12896, Miss = 12896, Miss_rate = 1.000, Pending_hits = 0, Reservation_fails = 17798
	L1D_cache_core[65]: Access = 11805, Miss = 11805, Miss_rate = 1.000, Pending_hits = 0, Reservation_fails = 19352
	L1D_cache_core[66]: Access = 12999, Miss = 12999, Miss_rate = 1.000, Pending_hits = 0, Reservation_fails = 15477
	L1D_cache_core[67]: Access = 11396, Miss = 11396, Miss_rate = 1.000, Pending_hits = 0, Reservation_fails = 19485
	L1D_cache_core[68]: Access = 11342, Miss = 11342, Miss_rate = 1.000, Pending_hits = 0, Reservation_fails = 19551
	L1D_cache_core[69]: Access = 11787, Miss = 11787, Miss_rate = 1.000, Pending_hits = 0, Reservation_fails = 18683
	L1D_cache_core[70]: Access = 11508, Miss = 11508, Miss_rate = 1.000, Pending_hits = 0, Reservation_fails = 21053
	L1D_cache_core[71]: Access = 12836, Miss = 12836, Miss_rate = 1.000, Pending_hits = 0, Reservation_fails = 22889
	L1D_cache_core[72]: Access = 11928, Miss = 11928, Miss_rate = 1.000, Pending_hits = 0, Reservation_fails = 17270
	L1D_cache_core[73]: Access = 10963, Miss = 10963, Miss_rate = 1.000, Pending_hits = 0, Reservation_fails = 16839
	L1D_cache_core[74]: Access = 12106, Miss = 12106, Miss_rate = 1.000, Pending_hits = 0, Reservation_fails = 18218
	L1D_cache_core[75]: Access = 12588, Miss = 12588, Miss_rate = 1.000, Pending_hits = 0, Reservation_fails = 20399
	L1D_cache_core[76]: Access = 12107, Miss = 12107, Miss_rate = 1.000, Pending_hits = 0, Reservation_fails = 18985
	L1D_cache_core[77]: Access = 11915, Miss = 11915, Miss_rate = 1.000, Pending_hits = 0, Reservation_fails = 17651
	L1D_cache_core[78]: Access = 11997, Miss = 11997, Miss_rate = 1.000, Pending_hits = 0, Reservation_fails = 18639
	L1D_cache_core[79]: Access = 13082, Miss = 13082, Miss_rate = 1.000, Pending_hits = 0, Reservation_fails = 17763
	L1D_total_cache_accesses = 961139
	L1D_total_cache_misses = 961139
	L1D_total_cache_miss_rate = 1.0000
	L1D_total_cache_pending_hits = 0
	L1D_total_cache_reservation_fails = 1513432
	L1D_cache_data_port_util = 0.000
	L1D_cache_fill_port_util = 0.108
L1C_cache:
	L1C_total_cache_accesses = 0
	L1C_total_cache_misses = 0
	L1C_total_cache_pending_hits = 0
	L1C_total_cache_reservation_fails = 0
L1T_cache:
	L1T_total_cache_accesses = 0
	L1T_total_cache_misses = 0
	L1T_total_cache_pending_hits = 0
	L1T_total_cache_reservation_fails = 0

Total_core_cache_stats:
	Total_core_cache_stats_breakdown[GLOBAL_ACC_R][HIT] = 0
	Total_core_cache_stats_breakdown[GLOBAL_ACC_R][HIT_RESERVED] = 0
	Total_core_cache_stats_breakdown[GLOBAL_ACC_R][MISS] = 534916
	Total_core_cache_stats_breakdown[GLOBAL_ACC_R][RESERVATION_FAIL] = 1110400
	Total_core_cache_stats_breakdown[GLOBAL_ACC_R][SECTOR_MISS] = 0
	Total_core_cache_stats_breakdown[LOCAL_ACC_R][HIT] = 0
	Total_core_cache_stats_breakdown[LOCAL_ACC_R][HIT_RESERVED] = 0
	Total_core_cache_stats_breakdown[LOCAL_ACC_R][MISS] = 0
	Total_core_cache_stats_breakdown[LOCAL_ACC_R][RESERVATION_FAIL] = 0
	Total_core_cache_stats_breakdown[LOCAL_ACC_R][SECTOR_MISS] = 0
	Total_core_cache_stats_breakdown[CONST_ACC_R][HIT] = 0
	Total_core_cache_stats_breakdown[CONST_ACC_R][HIT_RESERVED] = 0
	Total_core_cache_stats_breakdown[CONST_ACC_R][MISS] = 0
	Total_core_cache_stats_breakdown[CONST_ACC_R][RESERVATION_FAIL] = 0
	Total_core_cache_stats_breakdown[CONST_ACC_R][SECTOR_MISS] = 0
	Total_core_cache_stats_breakdown[TEXTURE_ACC_R][HIT] = 0
	Total_core_cache_stats_breakdown[TEXTURE_ACC_R][HIT_RESERVED] = 0
	Total_core_cache_stats_breakdown[TEXTURE_ACC_R][MISS] = 0
	Total_core_cache_stats_breakdown[TEXTURE_ACC_R][RESERVATION_FAIL] = 0
	Total_core_cache_stats_breakdown[TEXTURE_ACC_R][SECTOR_MISS] = 0
	Total_core_cache_stats_breakdown[GLOBAL_ACC_W][HIT] = 0
	Total_core_cache_stats_breakdown[GLOBAL_ACC_W][HIT_RESERVED] = 0
	Total_core_cache_stats_breakdown[GLOBAL_ACC_W][MISS] = 426223
	Total_core_cache_stats_breakdown[GLOBAL_ACC_W][RESERVATION_FAIL] = 403032
	Total_core_cache_stats_breakdown[GLOBAL_ACC_W][SECTOR_MISS] = 0
	Total_core_cache_stats_breakdown[LOCAL_ACC_W][HIT] = 0
	Total_core_cache_stats_breakdown[LOCAL_ACC_W][HIT_RESERVED] = 0
	Total_core_cache_stats_breakdown[LOCAL_ACC_W][MISS] = 0
	Total_core_cache_stats_breakdown[LOCAL_ACC_W][RESERVATION_FAIL] = 0
	Total_core_cache_stats_breakdown[LOCAL_ACC_W][SECTOR_MISS] = 0
	Total_core_cache_stats_breakdown[L1_WRBK_ACC][HIT] = 0
	Total_core_cache_stats_breakdown[L1_WRBK_ACC][HIT_RESERVED] = 0
	Total_core_cache_stats_breakdown[L1_WRBK_ACC][MISS] = 0
	Total_core_cache_stats_breakdown[L1_WRBK_ACC][RESERVATION_FAIL] = 0
	Total_core_cache_stats_breakdown[L1_WRBK_ACC][SECTOR_MISS] = 0
	Total_core_cache_stats_breakdown[L2_WRBK_ACC][HIT] = 0
	Total_core_cache_stats_breakdown[L2_WRBK_ACC][HIT_RESERVED] = 0
	Total_core_cache_stats_breakdown[L2_WRBK_ACC][MISS] = 0
	Total_core_cache_stats_breakdown[L2_WRBK_ACC][RESERVATION_FAIL] = 0
	Total_core_cache_stats_breakdown[L2_WRBK_ACC][SECTOR_MISS] = 0
	Total_core_cache_stats_breakdown[INST_ACC_R][HIT] = 0
	Total_core_cache_stats_breakdown[INST_ACC_R][HIT_RESERVED] = 0
	Total_core_cache_stats_breakdown[INST_ACC_R][MISS] = 0
	Total_core_cache_stats_breakdown[INST_ACC_R][RESERVATION_FAIL] = 0
	Total_core_cache_stats_breakdown[INST_ACC_R][SECTOR_MISS] = 0
	Total_core_cache_stats_breakdown[L1_WR_ALLOC_R][HIT] = 0
	Total_core_cache_stats_breakdown[L1_WR_ALLOC_R][HIT_RESERVED] = 0
	Total_core_cache_stats_breakdown[L1_WR_ALLOC_R][MISS] = 0
	Total_core_cache_stats_breakdown[L1_WR_ALLOC_R][RESERVATION_FAIL] = 0
	Total_core_cache_stats_breakdown[L1_WR_ALLOC_R][SECTOR_MISS] = 0
	Total_core_cache_stats_breakdown[L2_WR_ALLOC_R][HIT] = 0
	Total_core_cache_stats_breakdown[L2_WR_ALLOC_R][HIT_RESERVED] = 0
	Total_core_cache_stats_breakdown[L2_WR_ALLOC_R][MISS] = 0
	Total_core_cache_stats_breakdown[L2_WR_ALLOC_R][RESERVATION_FAIL] = 0
	Total_core_cache_stats_breakdown[L2_WR_ALLOC_R][SECTOR_MISS] = 0
	Total_core_cache_stats_breakdown[GLOBAL_ACC_R][TOTAL_ACCESS] = 534916
	Total_core_cache_stats_breakdown[GLOBAL_ACC_W][TOTAL_ACCESS] = 426223

Total_core_cache_fail_stats:
	Total_core_cache_fail_stats_breakdown[GLOBAL_ACC_R][MISS_QUEUE_FULL] = 1110400
	Total_core_cache_fail_stats_breakdown[GLOBAL_ACC_W][MISS_QUEUE_FULL] = 403032
Shader 0 warp_id issue ditsribution:
warp_id:
0, 1, 2, 3, 4, 5, 6, 7, 8, 9, 10, 11, 12, 13, 14, 15, 16, 17, 18, 19, 20, 21, 22, 23, 24, 25, 26, 27, 28, 29, 30, 31, 32, 33, 34, 35, 36, 37, 38, 39, 40, 41, 42, 43, 
distro:
599, 533, 533, 543, 566, 500, 500, 510, 717, 655, 655, 675, 565, 500, 500, 510, 717, 656, 656, 676, 605, 545, 545, 565, 397, 387, 387, 397, 400, 387, 387, 397, 400, 362, 387, 387, 232, 282, 306, 204, 400, 362, 362, 372, 
gpgpu_n_tot_thrd_icount = 61309440
gpgpu_n_tot_w_icount = 1915920
gpgpu_n_stall_shd_mem = 4110393
gpgpu_n_mem_read_local = 0
gpgpu_n_mem_write_local = 0
gpgpu_n_mem_read_global = 534746
gpgpu_n_mem_write_global = 870940
gpgpu_n_mem_texture = 0
gpgpu_n_mem_const = 0
gpgpu_n_load_insn  = 4281408
gpgpu_n_store_insn = 5778002
gpgpu_n_shmem_insn = 0
gpgpu_n_sstarr_insn = 0
gpgpu_n_tex_insn = 0
gpgpu_n_const_mem_insn = 0
gpgpu_n_param_mem_insn = 450064
gpgpu_n_shmem_bkconflict = 0
gpgpu_n_cache_bkconflict = 0
gpgpu_n_intrawarp_mshr_merge = 0
gpgpu_n_cmem_portconflict = 0
gpgpu_stall_shd_mem[c_mem][resource_stall] = 0
gpgpu_stall_shd_mem[s_mem][bk_conf] = 0
gpgpu_stall_shd_mem[gl_mem][resource_stall] = 1940779
gpgpu_stall_shd_mem[gl_mem][coal_stall] = 349438
gpgpu_stall_shd_mem[gl_mem][data_port_stall] = 0
gpu_reg_bank_conflict_stalls = 0
Warp Occupancy Distribution:
Stall:15681133	W0_Idle:16378	W0_Scoreboard:1395375	W1:64156	W2:0	W3:0	W4:0	W5:0	W6:0	W7:0	W8:0	W9:0	W10:0	W11:0	W12:0	W13:0	W14:0	W15:0	W16:0	W17:0	W18:0	W19:0	W20:0	W21:0	W22:0	W23:239749	W24:226931	W25:0	W26:0	W27:0	W28:0	W29:0	W30:0	W31:227493	W32:1165425
single_issue_nums: WS0:500887	WS1:468212	WS2:473011	WS3:481644	
dual_issue_nums: WS0:0	WS1:0	WS2:0	WS3:0	
traffic_breakdown_coretomem[GLOBAL_ACC_R] = 4277968 {8:534746,}
traffic_breakdown_coretomem[GLOBAL_ACC_W] = 20595072 {8:445079,40:425861,}
traffic_breakdown_memtocore[GLOBAL_ACC_R] = 20471360 {40:511784,}
traffic_breakdown_memtocore[GLOBAL_ACC_W] = 6638160 {8:829770,}
maxmflatency = 13077 
max_icnt2mem_latency = 12125 
maxmrqlatency = 1450 
max_icnt2sh_latency = 744 
averagemflatency = 2900 
avg_icnt2mem_latency = 2269 
avg_mrq_latency = 140 
avg_icnt2sh_latency = 21 
mrq_lat_table:26247 	21273 	12455 	18702 	38788 	88000 	136540 	170417 	70652 	16057 	332 	0 	0 	0 	0 	0 	0 	0 	0 	0 	0 	0 	0 	0 	0 	0 	0 	0 	0 	0 	0 	0 	
dq_lat_table:0 	0 	0 	0 	0 	0 	0 	0 	0 	0 	0 	0 	0 	0 	0 	0 	0 	0 	0 	0 	0 	0 	0 	0 	0 	0 	0 	0 	0 	0 	0 	0 	
mf_lat_table:0 	0 	0 	0 	0 	0 	0 	1095 	6584 	75110 	458961 	492764 	299059 	7953 	0 	0 	0 	0 	0 	0 	0 	0 	0 	0 	0 	0 	0 	0 	0 	0 	0 	0 	
icnt2mem_lat_table:0 	11 	1 	3 	933 	2707 	7659 	17240 	22114 	285491 	395316 	453683 	169983 	1750 	0 	0 	0 	0 	0 	0 	0 	0 	0 	0 	
icnt2sh_lat_table:0 	829579 	163390 	102351 	76631 	59144 	44990 	39288 	24699 	1454 	0 	0 	0 	0 	0 	0 	0 	0 	0 	0 	0 	0 	0 	0 	
mf_lat_pw_table:0 	0 	0 	0 	0 	0 	0 	0 	0 	2 	19 	60 	36 	0 	0 	0 	0 	0 	0 	0 	0 	0 	0 	0 	0 	0 	0 	0 	0 	0 	0 	0 	
maximum concurrent accesses to same row:
dram[0]:        15        19        18        24        20        20        16        16        18        16        63        67        77        77        12        12 
dram[1]:        60        15        12        16        15        12        14        12        12        12        25        28        70        62        14        15 
dram[2]:        63        28        28        15        20        20        24        16        18        16        28        46        42        47        21        18 
dram[3]:        91        21        17        18        18        12        21        12        12        12        26        35        39        43        14        17 
dram[4]:        43        19        26        24        20        20        16        16        18        16        65        64        72        47        12        12 
dram[5]:        46        16        16        14        15        14        14        12        12        12        27        34        52        35        25        13 
dram[6]:        52        20        18        19        20        20        16        16        18        16        38        47        76        68        16        12 
dram[7]:        53        16        14        21        18        14        14        14        12        12        27        18        61        60        12        15 
dram[8]:        45        12        25        19        20        20        16        16        18        16        62        62        50        59        13        16 
dram[9]:        27        15        13        17        21        14        14        14        12        12        35        24        48        51        15        13 
dram[10]:        19        12        18        16        20        20        16        16        18        16        64        65        75        66        17        12 
dram[11]:        14        14        12        19        15        17        14        21        12        12        23        27        57        59        12        15 
dram[12]:        20        15        18        20        24        20        16        16        18        16        57        55        77        48        15        15 
dram[13]:        18        16        18        18        21        12        14        18        12        15        24        26        66        45        18        17 
dram[14]:        14        14        19        16        20        20        16        16        18        16        52        49        42        56        17        16 
dram[15]:        11        11        14        12        15        12        14        14        12        12        44        45        32        48        14         9 
dram[16]:        19        18        32        12        20        20        16        16        18        16        64        75        69        65        12        16 
dram[17]:        15        11        12        12        15        14        14        21        12        15        28        25        48        55        14        16 
dram[18]:        12        16        18        20        20        20        20        16        18        16        47        56        62        56        12        11 
dram[19]:        17        11        15        17        15        14        21        14        12        12        19        25        51        40        14        13 
dram[20]:        14        14        20        12        20        20        16        16        18        16        47        47        53        67        19        19 
dram[21]:        24        11        21        14        15        14        21        14        12        14        32        26        45        60        17        17 
dram[22]:        12        19        18        13        20        20        16        16        18        16        47        46        68        68        12        12 
dram[23]:        11        16        12        18        15        14        12        14        12        12        23        37        43        59        11        12 
dram[24]:        12        25        22        19        20        20        16        16        18        16        45        45        80        66        17        12 
dram[25]:        13        15        22        16        15        12        14        14        12        12        39        28        69        62        15        12 
dram[26]:        16        12        19        16        20        20        16        16        18        16        46        54        78        69        13        22 
dram[27]:        11        14        25        19        15        14        12        14        12        14        19        25        67        63        11        19 
dram[28]:        26        34        18        24        20        20        16        16        18        16        44        47        49        65        27        14 
dram[29]:        17        12        14        21        15        12        14        14        15        14        23        25        44        59        15        19 
dram[30]:        20        14        20        20        20        20        16        16        18        16        44        36        63        70        12        16 
dram[31]:        23        11        21        14        15        14        12        12        12        12        31        25        61        61        16        11 
maximum service time to same row:
dram[0]:     30780     24245     24835     24910     13460     14402     10437     12481      8226      8145      7389      7500     13518     14024     17411     16885 
dram[1]:     15995     23885     28806     27422     13060     14543     11298     16030      6140      6200      7255      7259     11419     12017     16982     17460 
dram[2]:     18705     22350     25253     29492     15386     13895     13967     12265      6104      6140      6959      6955     13518     14024     17411     16885 
dram[3]:     20728     22199     28439     31049     14661     13347     14084     14580      6140      6200      7255      7259     11419     12017     17028     17063 
dram[4]:     22008     22964     22239     24131     15393     13322     14413     14950      7457      6452      6959      6955     13518     14024     17411     16885 
dram[5]:     21824     23141     25691     27663     14907     13462     15094     15915      6140      6200      7255      7259     11419     12017     17031     17050 
dram[6]:     20362     24437     23421     27850     12002     14314     14174     13383      6753      6824      6959      6955     13518     14024     17411     16885 
dram[7]:     22181     24299     26787     29856     13688     13178     15193     14197      6140      6200      7255      7259     11419     12017     16977     17000 
dram[8]:     22521     22317     24623     23782     12250     14838     14011     14262      6181      6215      6959      6955     13518     14024     17411     16885 
dram[9]:     22252     22166     27905     28040     12861     14624     16575     16573      6140      6200      7255      7259     11419     12017     17055     17086 
dram[10]:     22991     23619     23398     26098     11937     14334     16833     16280      7234      7202      6959      6955     13518     14024     17411     16885 
dram[11]:     23115     23363     26676     29638     13984     14076     17214     15731      6140      6200      7255      7259     11419     12017     17043     17068 
dram[12]:     29636     23977     24656     24323     11721     13012     15537     11586      6275      6267      6959      6955     13518     14024     17411     16885 
dram[13]:     29603     23984     28557     28798     13037     13070     14266     13701      6140      6200      7255      7259     11419     12017     16967     17002 
dram[14]:     28800     22303     23378     26774     13053     14437     14304     16402      6104      6140      6959      6955     13518     14024     17411     16885 
dram[15]:     28827     22115     26789     28564     14768     14089     16535     17738      6140      6200      7255      7259     11419     12017     17062     17086 
dram[16]:     28877     23927     26147     24887     12351     14117     12943     14421      7152      7001      6959      6955     13518     14024     17411     16885 
dram[17]:     28523     23359     28246     27287     13250     13513     15732     16247      6140      6200      7255      7259     11419     12017     16913     16950 
dram[18]:     29849     24196     24450     26929     11842     13325     14333     16170      6104      6188      6959      6955     13518     14024     17163     16966 
dram[19]:     29524     24748     27469     29023     14226     14267     15636     16944      6140      6200      7255      7259     11419     12017     17051     17003 
dram[20]:     29654     23971     26153     29822     15183     13711     11895     14970      6335      6263      6959      6955     13518     14024     17163     16966 
dram[21]:     29349     23788     27797     31444     14935     13435     18131     17553      6140      6200      7255      7259     11419     12017     17019     16999 
dram[22]:     29202     23809     25655     28061     13037     13878     15531     15426      6455      6140      6959      6955     13518     14024     17163     16966 
dram[23]:     28416     24230     28516     30994     15217     14488     16949     15747      6140      6200      7255      7259     11419     12017     17010     16947 
dram[24]:     29596     23935     26043     29506     11910     13457     15034     15692      6869      6802      6959      6955     13518     14024     17163     16966 
dram[25]:     29487     23946     28450     30194     13669     14198     16755     17024      6140      6200      7255      7259     11419     12017     17110     17036 
dram[26]:     28877     23239     24531     27467     11637     12892     17602     16322      6494      6140      6959      6955     13518     14024     17163     16966 
dram[27]:     28916     23379     27637     30909     15466     14548     18101     17536      6140      6200      7255      7259     11419     12017     17050     17010 
dram[28]:     28785     23149     25860     23914     13198     13868     12266     15706      6334      6190      6959      6955     13518     14024     17163     16966 
dram[29]:     28500     22972     27896     28150     14805     13135     14002     17012      6140      6200      7255      7259     11419     12017     17055     16999 
dram[30]:     29294     23675     27046     28354     12088     15254     20319     19273      6104      6140      6959      6955     13518     14024     17162     17020 
dram[31]:     29439     23681     29181     29690     13157     16916     20211     20272      6140      6200      7255      7259     11419     12017     16727     16743 
average row accesses per activate:
dram[0]:  4.231372  4.477179  5.239521  5.410714  5.428571  5.478788  4.323651  4.344262  3.869565  4.073864  3.943069  3.830549  3.745192  3.800487  3.865753  4.011300 
dram[1]:  4.369748  4.225108  4.630682  5.145570  5.131579  5.273334  4.096916  3.978903  3.730205  3.639205  3.567164  3.555556  3.493797  3.560914  3.554017  3.628242 
dram[2]:  4.584677  4.411017  5.357576  5.333333  5.371951  5.500000  4.395061  4.436214  3.933702  3.972299  3.902439  3.665904  3.697400  3.687204  3.909348  3.956012 
dram[3]:  4.313253  3.845528  4.779762  5.018868  4.925926  4.956522  4.004202  4.129310  3.708455  3.660000  3.706186  3.591022  3.517588  3.446913  3.599424  3.610465 
dram[4]:  4.226277  4.050193  4.656250  4.775956  5.023669  5.391304  4.276423  4.454545  4.103746  4.028090  3.935961  3.825359  3.762590  3.716667  3.888889  3.742548 
dram[5]:  4.259259  4.052402  4.924528  5.140940  5.074324  5.000000  4.057269  4.012658  3.719298  3.588235  3.608040  3.653944  3.386473  3.534177  3.392473  3.595930 
dram[6]:  4.231884  4.254098  4.994253  5.083832  5.481013  5.655629  4.206349  4.349594  3.944598  3.824000  3.816667  3.741176  3.648837  3.759036  4.014409  3.930836 
dram[7]:  3.977528  3.983122  4.664634  4.842767  5.170068  5.241611  4.008474  4.068669  3.676301  3.568245  3.367682  3.508558  3.359036  3.426829  3.560694  3.564470 
dram[8]:  4.121528  4.147860  5.205883  5.154286  5.382716  5.623377  4.276423  4.639131  4.011268  4.144509  3.811456  3.782506  3.905000  3.803398  3.830189  3.793566 
dram[9]:  3.867383  3.991632  4.680473  5.037736  5.032467  5.153333  4.047619  4.104348  3.655172  3.548476  3.333333  3.568238  3.415648  3.419118  3.525140  3.590395 
dram[10]:  4.075602  4.146245  4.877778  4.994350  5.177914  5.358490  4.286307  4.468085  3.807487  4.016807  3.672769  3.769412  3.752998  3.804878  3.936288  3.994350 
dram[11]:  3.801370  3.779923  4.674286  5.036145  5.139241  5.335526  4.095652  4.012658  3.697675  3.618644  3.551724  3.531863  3.342043  3.351675  3.461333  3.535714 
dram[12]:  4.253572  4.408333  5.128655  5.271084  5.541401  5.607843  4.291498  4.553192  4.011268  4.016807  3.924205  3.900000  3.792771  3.870647  3.980282  3.962319 
dram[13]:  3.886121  3.983607  4.722543  4.885542  5.084415  4.944099  4.021186  4.113445  3.763314  3.681035  3.551724  3.731266  3.360190  3.428921  3.560906  3.450276 
dram[14]:  4.202847  4.438016  5.096591  5.085714  5.386503  5.490683  4.207171  4.438016  3.988796  3.966851  3.775943  3.928921  3.691765  3.796610  4.112717  3.782842 
dram[15]:  3.686411  3.820717  4.660819  4.624278  4.893750  4.975000  4.118943  4.152838  3.634286  3.676218  3.413302  3.589552  3.465686  3.400966  3.460705  3.429348 
dram[16]:  4.062069  4.044610  4.910614  4.793478  5.263803  5.588957  4.160643  4.369295  4.080229  4.016760  3.668966  3.943489  3.809291  3.805353  3.870968  3.963989 
dram[17]:  3.720690  3.792593  4.551352  4.462766  5.073620  4.801136  4.077253  4.160870  3.553073  3.629944  3.370023  3.523114  3.304245  3.225287  3.331633  3.460106 
dram[18]:  4.190299  4.388664  5.173410  5.052326  5.503030  5.759494  4.305221  4.324111  3.977654  3.945205  3.654462  3.814286  3.652482  3.764706  3.873950  4.020290 
dram[19]:  3.693950  3.613139  4.586592  4.377778  4.880952  5.012195  3.906504  4.104602  3.697675  3.459677  3.539409  3.566832  3.357488  3.407408  3.369565  3.565714 
dram[20]:  4.248032  4.456067  4.848837  4.954286  5.554054  5.385093  4.336134  4.353909  3.848649  3.956044  3.771765  3.639640  3.672941  3.830882  3.887640  4.031339 
dram[21]:  3.899614  3.919355  4.688235  4.828221  4.919255  4.919753  4.095652  4.063830  3.730205  3.565097  3.533170  3.565111  3.452323  3.527778  3.573034  3.758112 
dram[22]:  4.403292  4.443965  5.295181  5.416667  5.594594  5.653595  4.244898  4.502128  3.988796  4.022346  3.839713  3.791962  3.779661  3.662763  4.020173  3.822034 
dram[23]:  4.109649  4.199074  5.303448  5.507246  5.145833  4.941936  4.092920  4.200893  3.665706  3.526027  3.558025  3.585608  3.590206  3.590206  3.542857  3.671687 
dram[24]:  4.278884  4.311741  5.294117  5.244186  5.402516  5.569697  4.381743  4.489626  3.890710  3.799472  3.644647  3.631461  3.782609  3.687059  4.043478  4.042857 
dram[25]:  3.963115  4.100437  4.876543  4.801242  4.849057  4.890244  4.213333  4.165217  3.634286  3.635593  3.610553  3.654912  3.500000  3.466667  3.783537  3.635838 
dram[26]:  4.208333  4.269710  5.237500  5.248447  5.798561  5.957143  4.229508  4.248996  3.807487  3.870968  3.755868  3.806604  3.628770  3.567873  3.985714  4.101191 
dram[27]:  4.126168  4.100000  4.841060  5.013793  5.303030  5.171429  4.044248  4.145374  3.676301  3.615169  3.581047  3.598015  3.549618  3.439024  3.667656  3.662651 
dram[28]:  4.247012  4.197531  4.947674  5.061728  5.637584  5.643312  4.344262  4.315790  3.922865  3.809524  3.806683  3.675799  3.742789  3.648456  3.970930  3.907514 
dram[29]:  4.120172  3.951965  4.476191  4.986301  5.013423  4.961783  4.131579  4.051282  3.565826  3.645892  3.410926  3.612500  3.304965  3.481108  3.696429  3.558140 
dram[30]:  4.344978  4.248909  5.012346  5.224359  5.421769  5.781690  4.320675  4.289796  3.896175  3.945205  3.780142  3.746512  3.745192  3.747596  3.948424  4.005988 
dram[31]:  4.062222  3.901786  4.705128  4.861842  5.013793  5.088435  4.158371  4.047210  3.660919  3.645892  3.601504  3.570024  3.339668  3.501259  3.714715  3.712121 
average row locality = 599463/150294 = 3.988602
number of total memory accesses made:
dram[0]:         0         0         0         0         0         0         0         0         0         0         0         0         0         0         0         0 
dram[1]:         0         0         0         0         0         0         0         0         0         0         0         0         0         0         0         0 
dram[2]:         0         0         0         0         0         0         0         0         0         0         0         0         0         0         0         0 
dram[3]:         0         0         0         0         0         0         0         0         0         0         0         0         0         0         0         0 
dram[4]:         0         0         0         0         0         0         0         0         0         0         0         0         0         0         0         0 
dram[5]:         0         0         0         0         0         0         0         0         0         0         0         0         0         0         0         0 
dram[6]:         0         0         0         0         0         0         0         0         0         0         0         0         0         0         0         0 
dram[7]:         0         0         0         0         0         0         0         0         0         0         0         0         0         0         0         0 
dram[8]:         0         0         0         0         0         0         0         0         0         0         0         0         0         0         0         0 
[...]
n_req = 17224 
total_req = 23419 

Dual Bus Interface Util: 
issued_total_row = 8848 
issued_total_col = 23419 
Row_Bus_Util =  0.182893 
CoL_Bus_Util = 0.484084 
Either_Row_CoL_Bus_Util = 0.560399 
Issued_on_Two_Bus_Simul_Util = 0.106577 
issued_two_Eff = 0.190181 
queue_avg = 35.499836 


dram_util_bins: 0 0 0 0 0 0 0 0 0 0
dram_eff_bins: 0 0 0 0 0 0 0 0 0 0
mrqq: max=64 avg=35.4998
Memory Partition 28: 
Cache L2_bank_056:

Cache L2_bank_057:

In Dram Latency Queue (total = 176): 
DRAM[28]: 16 bks, busW=16 BL=2 CL=12, tRRD=3 tCCD=1, tRCD=12 tRAS=28 tRP=12 tRC=40
n_cmd=48378 n_nop=18436 n_act=4748 n_pre=4734 n_ref_event=0 n_req=19552 n_rd=16834 n_rd_L2_A=0 n_write=0 n_wr_bk=9389 bw_util=0.542
n_activity=40757 dram_eff=0.6434
bk0: 942a 34004i bk1: 904a 34811i bk2: 792a 38910i bk3: 776a 39442i bk4: 796a 40602i bk5: 844a 40327i bk6: 944a 35353i bk7: 944a 34548i bk8: 1216a 28472i bk9: 1224a 27778i bk10: 1280a 24637i bk11: 1280a 23259i bk12: 1276a 23866i bk13: 1264a 23686i bk14: 1176a 29265i bk15: 1176a 28291i 

------------------------------------------------------------------------

Row_Buffer_Locality = 0.756273
Row_Buffer_Locality_read = 0.803112
Row_Buffer_Locality_write = 0.458899
Bank_Level_Parallism = 7.118485
Bank_Level_Parallism_Col = 4.823069
Bank_Level_Parallism_Ready = 1.850055
write_to_read_ratio_blp_rw_average = 0.386527
GrpLevelPara = 3.083652 

BW Util details:
bwutil = 0.542044 
total_CMD = 48378 
util_bw = 26223 
Wasted_Col = 13345 
Wasted_Row = 648 
Idle = 8162 

BW Util Bottlenecks: 
RCDc_limit = 15337 
RCDWRc_limit = 4735 
WTRc_limit = 9101 
RTWc_limit = 25965 
CCDLc_limit = 10400 
rwq = 0 
CCDLc_limit_alone = 7467 
WTRc_limit_alone = 8257 
RTWc_limit_alone = 23876 

Commands details: 
total_CMD = 48378 
n_nop = 18436 
Read = 16834 
Write = 0 
L2_Alloc = 0 
L2_WB = 9389 
n_act = 4748 
n_pre = 4734 
n_ref = 0 
n_req = 19552 
total_req = 26223 

Dual Bus Interface Util: 
issued_total_row = 9482 
issued_total_col = 26223 
Row_Bus_Util =  0.195998 
CoL_Bus_Util = 0.542044 
Either_Row_CoL_Bus_Util = 0.618918 
Issued_on_Two_Bus_Simul_Util = 0.119124 
issued_two_Eff = 0.192472 
queue_avg = 41.450806 


dram_util_bins: 0 0 0 0 0 0 0 0 0 0
dram_eff_bins: 0 0 0 0 0 0 0 0 0 0
mrqq: max=64 avg=41.4508
Memory Partition 29: 
Cache L2_bank_058:

Cache L2_bank_059:

In Dram Latency Queue (total = 172): 
DRAM[29]: 16 bks, busW=16 BL=2 CL=12, tRRD=3 tCCD=1, tRCD=12 tRAS=28 tRP=12 tRC=40
n_cmd=48378 n_nop=20946 n_act=4573 n_pre=4558 n_ref_event=0 n_req=17512 n_rd=14840 n_rd_L2_A=0 n_write=0 n_wr_bk=8691 bw_util=0.4864
n_activity=39941 dram_eff=0.5891
bk0: 844a 35422i bk1: 795a 35450i bk2: 707a 39627i bk3: 690a 41016i bk4: 704a 40727i bk5: 735a 40487i bk6: 826a 35999i bk7: 826a 35418i bk8: 1064a 29416i bk9: 1071a 29035i bk10: 1120a 24994i bk11: 1120a 24366i bk12: 1120a 24650i bk13: 1113a 26156i bk14: 1055a 29637i bk15: 1050a 29402i 

------------------------------------------------------------------------

Row_Buffer_Locality = 0.737792
Row_Buffer_Locality_read = 0.788563
Row_Buffer_Locality_write = 0.448117
Bank_Level_Parallism = 6.971461
Bank_Level_Parallism_Col = 4.699535
Bank_Level_Parallism_Ready = 1.806766
write_to_read_ratio_blp_rw_average = 0.414478
GrpLevelPara = 3.004676 

BW Util details:
bwutil = 0.486399 
total_CMD = 48378 
util_bw = 23531 
Wasted_Col = 14011 
Wasted_Row = 1142 
Idle = 9694 

BW Util Bottlenecks: 
RCDc_limit = 15270 
RCDWRc_limit = 5487 
WTRc_limit = 8699 
RTWc_limit = 27010 
CCDLc_limit = 10760 
rwq = 0 
CCDLc_limit_alone = 7564 
WTRc_limit_alone = 7694 
RTWc_limit_alone = 24819 

Commands details: 
total_CMD = 48378 
n_nop = 20946 
Read = 14840 
Write = 0 
L2_Alloc = 0 
L2_WB = 8691 
n_act = 4573 
n_pre = 4558 
n_ref = 0 
n_req = 17512 
total_req = 23531 

Dual Bus Interface Util: 
issued_total_row = 9131 
issued_total_col = 23531 
Row_Bus_Util =  0.188743 
CoL_Bus_Util = 0.486399 
Either_Row_CoL_Bus_Util = 0.567035 
Issued_on_Two_Bus_Simul_Util = 0.108107 
issued_two_Eff = 0.190653 
queue_avg = 36.298153 


dram_util_bins: 0 0 0 0 0 0 0 0 0 0
dram_eff_bins: 0 0 0 0 0 0 0 0 0 0
mrqq: max=64 avg=36.2982
Memory Partition 30: 
Cache L2_bank_060:

Cache L2_bank_061:

In Dram Latency Queue (total = 188): 
DRAM[30]: 16 bks, busW=16 BL=2 CL=12, tRRD=3 tCCD=1, tRCD=12 tRAS=28 tRP=12 tRC=40
n_cmd=48378 n_nop=18848 n_act=4642 n_pre=4628 n_ref_event=0 n_req=19258 n_rd=16534 n_rd_L2_A=0 n_write=0 n_wr_bk=9382 bw_util=0.5357
n_activity=41020 dram_eff=0.6318
bk0: 884a 33954i bk1: 868a 34622i bk2: 756a 40281i bk3: 752a 40322i bk4: 752a 41372i bk5: 764a 41169i bk6: 908a 36144i bk7: 926a 35550i bk8: 1216a 28487i bk9: 1224a 27455i bk10: 1280a 22901i bk11: 1280a 21740i bk12: 1280a 24175i bk13: 1280a 22478i bk14: 1196a 27680i bk15: 1168a 28553i 

------------------------------------------------------------------------

Row_Buffer_Locality = 0.757983
Row_Buffer_Locality_read = 0.804281
Row_Buffer_Locality_write = 0.469902
Bank_Level_Parallism = 7.101882
Bank_Level_Parallism_Col = 4.888170
Bank_Level_Parallism_Ready = 1.866878
write_to_read_ratio_blp_rw_average = 0.399554
GrpLevelPara = 3.104673 

BW Util details:
bwutil = 0.535698 
total_CMD = 48378 
util_bw = 25916 
Wasted_Col = 13592 
Wasted_Row = 813 
Idle = 8057 

BW Util Bottlenecks: 
RCDc_limit = 14795 
RCDWRc_limit = 4820 
WTRc_limit = 8746 
RTWc_limit = 28669 
CCDLc_limit = 10901 
rwq = 0 
CCDLc_limit_alone = 7487 
WTRc_limit_alone = 7823 
RTWc_limit_alone = 26178 

Commands details: 
total_CMD = 48378 
n_nop = 18848 
Read = 16534 
Write = 0 
L2_Alloc = 0 
L2_WB = 9382 
n_act = 4642 
n_pre = 4628 
n_ref = 0 
n_req = 19258 
total_req = 25916 

Dual Bus Interface Util: 
issued_total_row = 9270 
issued_total_col = 25916 
Row_Bus_Util =  0.191616 
CoL_Bus_Util = 0.535698 
Either_Row_CoL_Bus_Util = 0.610401 
Issued_on_Two_Bus_Simul_Util = 0.116913 
issued_two_Eff = 0.191534 
queue_avg = 42.562901 


dram_util_bins: 0 0 0 0 0 0 0 0 0 0
dram_eff_bins: 0 0 0 0 0 0 0 0 0 0
mrqq: max=64 avg=42.5629
Memory Partition 31: 
Cache L2_bank_062:

Cache L2_bank_063:

In Dram Latency Queue (total = 205): 
DRAM[31]: 16 bks, busW=16 BL=2 CL=12, tRRD=3 tCCD=1, tRCD=12 tRAS=28 tRP=12 tRC=40
n_cmd=48378 n_nop=21191 n_act=4485 n_pre=4475 n_ref_event=0 n_req=17343 n_rd=14677 n_rd_L2_A=0 n_write=0 n_wr_bk=8729 bw_util=0.4838
n_activity=39127 dram_eff=0.5982
bk0: 810a 35462i bk1: 778a 35633i bk2: 683a 40277i bk3: 686a 40498i bk4: 680a 41484i bk5: 697a 41072i bk6: 802a 36521i bk7: 819a 35739i bk8: 1064a 28746i bk9: 1071a 28588i bk10: 1120a 24758i bk11: 1120a 24729i bk12: 1120a 24292i bk13: 1120a 25865i bk14: 1057a 29393i bk15: 1050a 29541i 

------------------------------------------------------------------------

Row_Buffer_Locality = 0.740510
Row_Buffer_Locality_read = 0.789538
Row_Buffer_Locality_write = 0.466286
Bank_Level_Parallism = 7.098656
Bank_Level_Parallism_Col = 4.832603
Bank_Level_Parallism_Ready = 1.853627
write_to_read_ratio_blp_rw_average = 0.426511
GrpLevelPara = 3.030670 

BW Util details:
bwutil = 0.483815 
total_CMD = 48378 
util_bw = 23406 
Wasted_Col = 13243 
Wasted_Row = 1210 
Idle = 10519 

BW Util Bottlenecks: 
RCDc_limit = 14518 
RCDWRc_limit = 5100 
WTRc_limit = 7403 
RTWc_limit = 26778 
CCDLc_limit = 10178 
rwq = 0 
CCDLc_limit_alone = 7053 
WTRc_limit_alone = 6552 
RTWc_limit_alone = 24504 

Commands details: 
total_CMD = 48378 
n_nop = 21191 
Read = 14677 
Write = 0 
L2_Alloc = 0 
L2_WB = 8729 
n_act = 4485 
n_pre = 4475 
n_ref = 0 
n_req = 17343 
total_req = 23406 

Dual Bus Interface Util: 
issued_total_row = 8960 
issued_total_col = 23406 
Row_Bus_Util =  0.185208 
CoL_Bus_Util = 0.483815 
Either_Row_CoL_Bus_Util = 0.561970 
Issued_on_Two_Bus_Simul_Util = 0.107053 
issued_two_Eff = 0.190495 
queue_avg = 35.468643 


dram_util_bins: 0 0 0 0 0 0 0 0 0 0
dram_eff_bins: 0 0 0 0 0 0 0 0 0 0
mrqq: max=64 avg=35.4686

========= L2 cache stats =========
L2_cache_bank[0]: Access = 21717, Miss = 15123, Miss_rate = 0.696, Pending_hits = 0, Reservation_fails = 5
L2_cache_bank[1]: Access = 22241, Miss = 15279, Miss_rate = 0.687, Pending_hits = 0, Reservation_fails = 0
L2_cache_bank[2]: Access = 20285, Miss = 14130, Miss_rate = 0.697, Pending_hits = 0, Reservation_fails = 857
L2_cache_bank[3]: Access = 20348, Miss = 14025, Miss_rate = 0.689, Pending_hits = 0, Reservation_fails = 682
L2_cache_bank[4]: Access = 22577, Miss = 15538, Miss_rate = 0.688, Pending_hits = 0, Reservation_fails = 324
L2_cache_bank[5]: Access = 22289, Miss = 15254, Miss_rate = 0.684, Pending_hits = 0, Reservation_fails = 373
L2_cache_bank[6]: Access = 20431, Miss = 14183, Miss_rate = 0.694, Pending_hits = 0, Reservation_fails = 0
L2_cache_bank[7]: Access = 20166, Miss = 13944, Miss_rate = 0.691, Pending_hits = 0, Reservation_fails = 3
L2_cache_bank[8]: Access = 22542, Miss = 15514, Miss_rate = 0.688, Pending_hits = 0, Reservation_fails = 0
L2_cache_bank[9]: Access = 22156, Miss = 15300, Miss_rate = 0.691, Pending_hits = 0, Reservation_fails = 0
L2_cache_bank[10]: Access = 20309, Miss = 14018, Miss_rate = 0.690, Pending_hits = 0, Reservation_fails = 0
L2_cache_bank[11]: Access = 19946, Miss = 13837, Miss_rate = 0.694, Pending_hits = 0, Reservation_fails = 0
L2_cache_bank[12]: Access = 22033, Miss = 15324, Miss_rate = 0.696, Pending_hits = 0, Reservation_fails = 12
L2_cache_bank[13]: Access = 21584, Miss = 15162, Miss_rate = 0.702, Pending_hits = 0, Reservation_fails = 724
L2_cache_bank[14]: Access = 19848, Miss = 13935, Miss_rate = 0.702, Pending_hits = 0, Reservation_fails = 0
L2_cache_bank[15]: Access = 19734, Miss = 13959, Miss_rate = 0.707, Pending_hits = 0, Reservation_fails = 0
L2_cache_bank[16]: Access = 22163, Miss = 15356, Miss_rate = 0.693, Pending_hits = 0, Reservation_fails = 20
L2_cache_bank[17]: Access = 22399, Miss = 15436, Miss_rate = 0.689, Pending_hits = 0, Reservation_fails = 0
L2_cache_bank[18]: Access = 20263, Miss = 14104, Miss_rate = 0.696, Pending_hits = 0, Reservation_fails = 0
L2_cache_bank[19]: Access = 20357, Miss = 14063, Miss_rate = 0.691, Pending_hits = 0, Reservation_fails = 2
L2_cache_bank[20]: Access = 22276, Miss = 15369, Miss_rate = 0.690, Pending_hits = 0, Reservation_fails = 0
L2_cache_bank[21]: Access = 21955, Miss = 15246, Miss_rate = 0.694, Pending_hits = 0, Reservation_fails = 0
L2_cache_bank[22]: Access = 20698, Miss = 14315, Miss_rate = 0.692, Pending_hits = 0, Reservation_fails = 0
L2_cache_bank[23]: Access = 20501, Miss = 14215, Miss_rate = 0.693, Pending_hits = 0, Reservation_fails = 5
L2_cache_bank[24]: Access = 21680, Miss = 15286, Miss_rate = 0.705, Pending_hits = 0, Reservation_fails = 0
L2_cache_bank[25]: Access = 21855, Miss = 15064, Miss_rate = 0.689, Pending_hits = 0, Reservation_fails = 0
L2_cache_bank[26]: Access = 20040, Miss = 14046, Miss_rate = 0.701, Pending_hits = 0, Reservation_fails = 0
L2_cache_bank[27]: Access = 20101, Miss = 13925, Miss_rate = 0.693, Pending_hits = 0, Reservation_fails = 0
L2_cache_bank[28]: Access = 21989, Miss = 15430, Miss_rate = 0.702, Pending_hits = 0, Reservation_fails = 0
L2_cache_bank[29]: Access = 21991, Miss = 15327, Miss_rate = 0.697, Pending_hits = 0, Reservation_fails = 0
L2_cache_bank[30]: Access = 20113, Miss = 14145, Miss_rate = 0.703, Pending_hits = 0, Reservation_fails = 0
L2_cache_bank[31]: Access = 20030, Miss = 14001, Miss_rate = 0.699, Pending_hits = 0, Reservation_fails = 0
L2_cache_bank[32]: Access = 22036, Miss = 15200, Miss_rate = 0.690, Pending_hits = 0, Reservation_fails = 0
L2_cache_bank[33]: Access = 21656, Miss = 15251, Miss_rate = 0.704, Pending_hits = 0, Reservation_fails = 20
L2_cache_bank[34]: Access = 20494, Miss = 14312, Miss_rate = 0.698, Pending_hits = 0, Reservation_fails = 0
L2_cache_bank[35]: Access = 20060, Miss = 14150, Miss_rate = 0.705, Pending_hits = 0, Reservation_fails = 0
L2_cache_bank[36]: Access = 22141, Miss = 15379, Miss_rate = 0.695, Pending_hits = 0, Reservation_fails = 0
L2_cache_bank[37]: Access = 22130, Miss = 15347, Miss_rate = 0.693, Pending_hits = 0, Reservation_fails = 67
L2_cache_bank[38]: Access = 20183, Miss = 14032, Miss_rate = 0.695, Pending_hits = 0, Reservation_fails = 0
L2_cache_bank[39]: Access = 20085, Miss = 13992, Miss_rate = 0.697, Pending_hits = 0, Reservation_fails = 0
L2_cache_bank[40]: Access = 21545, Miss = 15134, Miss_rate = 0.702, Pending_hits = 0, Reservation_fails = 0
L2_cache_bank[41]: Access = 22083, Miss = 15334, Miss_rate = 0.694, Pending_hits = 0, Reservation_fails = 106
L2_cache_bank[42]: Access = 20182, Miss = 14182, Miss_rate = 0.703, Pending_hits = 0, Reservation_fails = 0
L2_cache_bank[43]: Access = 20091, Miss = 14052, Miss_rate = 0.699, Pending_hits = 0, Reservation_fails = 0
L2_cache_bank[44]: Access = 22348, Miss = 15300, Miss_rate = 0.685, Pending_hits = 0, Reservation_fails = 2
L2_cache_bank[45]: Access = 22188, Miss = 15206, Miss_rate = 0.685, Pending_hits = 0, Reservation_fails = 0
L2_cache_bank[46]: Access = 20101, Miss = 13957, Miss_rate = 0.694, Pending_hits = 0, Reservation_fails = 0
L2_cache_bank[47]: Access = 20185, Miss = 13964, Miss_rate = 0.692, Pending_hits = 0, Reservation_fails = 200
L2_cache_bank[48]: Access = 22220, Miss = 15294, Miss_rate = 0.688, Pending_hits = 0, Reservation_fails = 0
L2_cache_bank[49]: Access = 22927, Miss = 15629, Miss_rate = 0.682, Pending_hits = 0, Reservation_fails = 753
L2_cache_bank[50]: Access = 20169, Miss = 14008, Miss_rate = 0.695, Pending_hits = 0, Reservation_fails = 0
L2_cache_bank[51]: Access = 20502, Miss = 14121, Miss_rate = 0.689, Pending_hits = 0, Reservation_fails = 0
L2_cache_bank[52]: Access = 21258, Miss = 14920, Miss_rate = 0.702, Pending_hits = 0, Reservation_fails = 0
L2_cache_bank[53]: Access = 22435, Miss = 15239, Miss_rate = 0.679, Pending_hits = 0, Reservation_fails = 0
L2_cache_bank[54]: Access = 19285, Miss = 13571, Miss_rate = 0.704, Pending_hits = 0, Reservation_fails = 0
L2_cache_bank[55]: Access = 20257, Miss = 13857, Miss_rate = 0.684, Pending_hits = 0, Reservation_fails = 0
L2_cache_bank[56]: Access = 21706, Miss = 15025, Miss_rate = 0.692, Pending_hits = 0, Reservation_fails = 0
L2_cache_bank[57]: Access = 21678, Miss = 15075, Miss_rate = 0.695, Pending_hits = 0, Reservation_fails = 0
L2_cache_bank[58]: Access = 19819, Miss = 13764, Miss_rate = 0.694, Pending_hits = 0, Reservation_fails = 47
L2_cache_bank[59]: Access = 19614, Miss = 13701, Miss_rate = 0.699, Pending_hits = 0, Reservation_fails = 0
L2_cache_bank[60]: Access = 21731, Miss = 14914, Miss_rate = 0.686, Pending_hits = 0, Reservation_fails = 0
L2_cache_bank[61]: Access = 22021, Miss = 15052, Miss_rate = 0.684, Pending_hits = 0, Reservation_fails = 0
L2_cache_bank[62]: Access = 19870, Miss = 13737, Miss_rate = 0.691, Pending_hits = 0, Reservation_fails = 0
L2_cache_bank[63]: Access = 20059, Miss = 13807, Miss_rate = 0.688, Pending_hits = 0, Reservation_fails = 0
L2_total_cache_accesses = 1349676
L2_total_cache_misses = 936359
L2_total_cache_miss_rate = 0.6938
L2_total_cache_pending_hits = 0
L2_total_cache_reservation_fails = 4202
L2_total_cache_breakdown:
	L2_cache_stats_breakdown[GLOBAL_ACC_R][HIT] = 0
	L2_cache_stats_breakdown[GLOBAL_ACC_R][HIT_RESERVED] = 0
	L2_cache_stats_breakdown[GLOBAL_ACC_R][MISS] = 138576
	L2_cache_stats_breakdown[GLOBAL_ACC_R][RESERVATION_FAIL] = 4202
	L2_cache_stats_breakdown[GLOBAL_ACC_R][SECTOR_MISS] = 380984
	L2_cache_stats_breakdown[LOCAL_ACC_R][HIT] = 0
	L2_cache_stats_breakdown[LOCAL_ACC_R][HIT_RESERVED] = 0
	L2_cache_stats_breakdown[LOCAL_ACC_R][MISS] = 0
	L2_cache_stats_breakdown[LOCAL_ACC_R][RESERVATION_FAIL] = 0
	L2_cache_stats_breakdown[LOCAL_ACC_R][SECTOR_MISS] = 0
	L2_cache_stats_breakdown[CONST_ACC_R][HIT] = 0
	L2_cache_stats_breakdown[CONST_ACC_R][HIT_RESERVED] = 0
	L2_cache_stats_breakdown[CONST_ACC_R][MISS] = 0
	L2_cache_stats_breakdown[CONST_ACC_R][RESERVATION_FAIL] = 0
	L2_cache_stats_breakdown[CONST_ACC_R][SECTOR_MISS] = 0
	L2_cache_stats_breakdown[TEXTURE_ACC_R][HIT] = 0
	L2_cache_stats_breakdown[TEXTURE_ACC_R][HIT_RESERVED] = 0
	L2_cache_stats_breakdown[TEXTURE_ACC_R][MISS] = 0
	L2_cache_stats_breakdown[TEXTURE_ACC_R][RESERVATION_FAIL] = 0
	L2_cache_stats_breakdown[TEXTURE_ACC_R][SECTOR_MISS] = 0
	L2_cache_stats_breakdown[GLOBAL_ACC_W][HIT] = 413317
	L2_cache_stats_breakdown[GLOBAL_ACC_W][HIT_RESERVED] = 0
	L2_cache_stats_breakdown[GLOBAL_ACC_W][MISS] = 97416
	L2_cache_stats_breakdown[GLOBAL_ACC_W][RESERVATION_FAIL] = 0
	L2_cache_stats_breakdown[GLOBAL_ACC_W][SECTOR_MISS] = 319383
	L2_cache_stats_breakdown[LOCAL_ACC_W][HIT] = 0
	L2_cache_stats_breakdown[LOCAL_ACC_W][HIT_RESERVED] = 0
	L2_cache_stats_breakdown[LOCAL_ACC_W][MISS] = 0
	L2_cache_stats_breakdown[LOCAL_ACC_W][RESERVATION_FAIL] = 0
	L2_cache_stats_breakdown[LOCAL_ACC_W][SECTOR_MISS] = 0
	L2_cache_stats_breakdown[L1_WRBK_ACC][HIT] = 0
	L2_cache_stats_breakdown[L1_WRBK_ACC][HIT_RESERVED] = 0
	L2_cache_stats_breakdown[L1_WRBK_ACC][MISS] = 0
	L2_cache_stats_breakdown[L1_WRBK_ACC][RESERVATION_FAIL] = 0
	L2_cache_stats_breakdown[L1_WRBK_ACC][SECTOR_MISS] = 0
	L2_cache_stats_breakdown[L2_WRBK_ACC][HIT] = 0
	L2_cache_stats_breakdown[L2_WRBK_ACC][HIT_RESERVED] = 0
	L2_cache_stats_breakdown[L2_WRBK_ACC][MISS] = 0
	L2_cache_stats_breakdown[L2_WRBK_ACC][RESERVATION_FAIL] = 0
	L2_cache_stats_breakdown[L2_WRBK_ACC][SECTOR_MISS] = 0
	L2_cache_stats_breakdown[INST_ACC_R][HIT] = 0
	L2_cache_stats_breakdown[INST_ACC_R][HIT_RESERVED] = 0
	L2_cache_stats_breakdown[INST_ACC_R][MISS] = 0
	L2_cache_stats_breakdown[INST_ACC_R][RESERVATION_FAIL] = 0
	L2_cache_stats_breakdown[INST_ACC_R][SECTOR_MISS] = 0
	L2_cache_stats_breakdown[L1_WR_ALLOC_R][HIT] = 0
	L2_cache_stats_breakdown[L1_WR_ALLOC_R][HIT_RESERVED] = 0
	L2_cache_stats_breakdown[L1_WR_ALLOC_R][MISS] = 0
	L2_cache_stats_breakdown[L1_WR_ALLOC_R][RESERVATION_FAIL] = 0
	L2_cache_stats_breakdown[L1_WR_ALLOC_R][SECTOR_MISS] = 0
	L2_cache_stats_breakdown[L2_WR_ALLOC_R][HIT] = 0
	L2_cache_stats_breakdown[L2_WR_ALLOC_R][HIT_RESERVED] = 0
	L2_cache_stats_breakdown[L2_WR_ALLOC_R][MISS] = 0
	L2_cache_stats_breakdown[L2_WR_ALLOC_R][RESERVATION_FAIL] = 0
	L2_cache_stats_breakdown[L2_WR_ALLOC_R][SECTOR_MISS] = 0
	L2_cache_stats_breakdown[GLOBAL_ACC_R][TOTAL_ACCESS] = 519560
	L2_cache_stats_breakdown[GLOBAL_ACC_W][TOTAL_ACCESS] = 830116
L2_total_cache_reservation_fail_breakdown:
	L2_cache_stats_fail_breakdown[GLOBAL_ACC_R][MSHR_ENRTY_FAIL] = 4202
L2_cache_data_port_util = 0.133
L2_cache_fill_port_util = 0.124

icnt_total_pkts_mem_to_simt=1341554
icnt_total_pkts_simt_to_mem=1405686
LD_mem_lat_dist  0 0 0 0 0 0 0 0 0 0 0 0 0 0 0 0 0 0 0 0 0 0 0 0 0 0 0
ST_mem_lat_dist  0 0 0 0 0 0 0 0 0 0 0 0 0 0 0 0 0 0 0 0 0 0 0 0 0 0 0
----------------------------Interconnect-DETAILS--------------------------------
Req_Network_injected_packets_num = 1405686
Req_Network_cycles = 64428
Req_Network_injected_packets_per_cycle =      21.8179 
Req_Network_conflicts_per_cycle =      47.5567
Req_Network_conflicts_per_cycle_util =      51.7093
Req_Bank_Level_Parallism =      23.0593
Req_Network_in_buffer_full_per_cycle =      64.0006
Req_Network_in_buffer_avg_util =     447.9825
Req_Network_out_buffer_full_per_cycle =       6.4051
Req_Network_out_buffer_avg_util =     165.8739

Reply_Network_injected_packets_num = 1341880
Reply_Network_cycles = 64428
Reply_Network_injected_packets_per_cycle =       20.8276
Reply_Network_conflicts_per_cycle =        7.6276
Reply_Network_conflicts_per_cycle_util =       8.7795
Reply_Bank_Level_Parallism =      23.9676
Reply_Network_in_buffer_full_per_cycle =       0.0000
Reply_Network_in_buffer_avg_util =       6.3115
Reply_Network_out_buffer_full_per_cycle =       0.0000
Reply_Network_out_buffer_avg_util =       0.2603
----------------------------END-of-Interconnect-DETAILS-------------------------


gpgpu_simulation_time = 0 days, 0 hrs, 9 min, 47 sec (587 sec)
gpgpu_simulation_rate = 93623 (inst/sec)
gpgpu_simulation_rate = 109 (cycle/sec)
gpgpu_silicon_slowdown = 10385321x
GPGPU-Sim: *** simulation thread exiting ***
GPGPU-Sim: ** break due to reaching the maximum cycles (or instructions) **
GPGPU-Sim: *** exit detected ***
