

        *** GPGPU-Sim Simulator Version 4.0.0  [build gpgpu-sim_git-commit-ffe0a1a00e984ecce9bf36e17ab94c4de0de8108_modified_0.0] ***


GPGPU-Sim PTX: simulation mode 0 (can change with PTX_SIM_MODE_FUNC environment variable:
               1=functional simulation only, 0=detailed performance simulator)
GPGPU-Sim PTX: overriding embedded ptx with ptx file (PTX_SIM_USE_PTX_FILE is set)
GPGPU-Sim: Configuration options:

-save_embedded_ptx                      0 # saves ptx files embedded in binary as <n>.ptx
-keep                                   0 # keep intermediate files created by GPGPU-Sim when interfacing with external programs
-gpgpu_ptx_save_converted_ptxplus                    0 # Saved converted ptxplus to a file
-gpgpu_occupancy_sm_number                   70 # The SM number to pass to ptxas when getting register usage for computing GPU occupancy. This parameter is required in the config.
-ptx_opcode_latency_int      4,13,4,5,145,21 # Opcode latencies for integers <ADD,MAX,MUL,MAD,DIV,SHFL>Default 1,1,19,25,145,32
-ptx_opcode_latency_fp          4,13,4,5,39 # Opcode latencies for single precision floating points <ADD,MAX,MUL,MAD,DIV>Default 1,1,1,1,30
-ptx_opcode_latency_dp         8,19,8,8,330 # Opcode latencies for double precision floating points <ADD,MAX,MUL,MAD,DIV>Default 8,8,8,8,335
-ptx_opcode_latency_sfu                  100 # Opcode latencies for SFU instructionsDefault 8
-ptx_opcode_latency_tesnor                   64 # Opcode latencies for Tensor instructionsDefault 64
-ptx_opcode_initiation_int          2,2,2,2,8,4 # Opcode initiation intervals for integers <ADD,MAX,MUL,MAD,DIV,SHFL>Default 1,1,4,4,32,4
-ptx_opcode_initiation_fp            2,2,2,2,4 # Opcode initiation intervals for single precision floating points <ADD,MAX,MUL,MAD,DIV>Default 1,1,1,1,5
-ptx_opcode_initiation_dp          4,4,4,4,130 # Opcode initiation intervals for double precision floating points <ADD,MAX,MUL,MAD,DIV>Default 8,8,8,8,130
-ptx_opcode_initiation_sfu                    8 # Opcode initiation intervals for sfu instructionsDefault 8
-ptx_opcode_initiation_tensor                   64 # Opcode initiation intervals for tensor instructionsDefault 64
-cdp_latency         7200,8000,100,12000,1600 # CDP API latency <cudaStreamCreateWithFlags, cudaGetParameterBufferV2_init_perWarp, cudaGetParameterBufferV2_perKernel, cudaLaunchDeviceV2_init_perWarp, cudaLaunchDevicV2_perKernel>Default 7200,8000,100,12000,1600
-network_mode                           2 # Interconnection network mode
-inter_config_file                   mesh # Interconnection network config file
-icnt_in_buffer_limit                  512 # in_buffer_limit
-icnt_out_buffer_limit                  512 # out_buffer_limit
-icnt_subnets                           2 # subnets
-icnt_arbiter_algo                      1 # arbiter_algo
-icnt_verbose                           0 # inct_verbose
-icnt_grant_cycles                      1 # grant_cycles
-gpgpu_ptx_use_cuobjdump                    1 # Use cuobjdump to extract ptx and sass from binaries
-gpgpu_experimental_lib_support                    0 # Try to extract code from cuda libraries [Broken because of unknown cudaGetExportTable]
-checkpoint_option                      0 #  checkpointing flag (0 = no checkpoint)
-checkpoint_kernel                      1 #  checkpointing during execution of which kernel (1- 1st kernel)
-checkpoint_CTA                         0 #  checkpointing after # of CTA (< less than total CTA)
-resume_option                          0 #  resume flag (0 = no resume)
-resume_kernel                          0 #  Resume from which kernel (1= 1st kernel)
-resume_CTA                             0 #  resume from which CTA 
-checkpoint_CTA_t                       0 #  resume from which CTA 
-checkpoint_insn_Y                      0 #  resume from which CTA 
-gpgpu_ptx_convert_to_ptxplus                    0 # Convert SASS (native ISA) to ptxplus and run ptxplus
-gpgpu_ptx_force_max_capability                   70 # Force maximum compute capability
-gpgpu_ptx_inst_debug_to_file                    0 # Dump executed instructions' debug information to file
-gpgpu_ptx_inst_debug_file       inst_debug.txt # Executed instructions' debug output file
-gpgpu_ptx_inst_debug_thread_uid                    1 # Thread UID for executed instructions' debug output
-gpgpu_n_mem_for_l2wb_pcommit                   32 # number of memory modules (e.g. memory controllers) in gpu
-gpgpu_n_sub_partition_per_mchannel_for_l2wb_pcommit                    2 # number of memory subpartition in each memory module
-gpgpu_dl2_bsize_for_l2wb_pcommit                  128 # default 128 bytes
-gpgpu_simd_model                       1 # 1 = post-dominator
-gpgpu_shader_core_pipeline              2048:32 # shader core pipeline config, i.e., {<nthread>:<warpsize>}
-gpgpu_tex_cache:l1  N:4:128:256,L:R:m:N:L,T:512:8,128:2 # per-shader L1 texture cache  (READ-ONLY) config  {<nsets>:<bsize>:<assoc>,<rep>:<wr>:<alloc>:<wr_alloc>,<mshr>:<N>:<merge>,<mq>:<rf>}
-gpgpu_const_cache:l1 N:128:64:8,L:R:f:N:L,S:2:64,4 # per-shader L1 constant memory cache  (READ-ONLY) config  {<nsets>:<bsize>:<assoc>,<rep>:<wr>:<alloc>:<wr_alloc>,<mshr>:<N>:<merge>,<mq>} 
-gpgpu_cache:il1     N:64:128:16,L:R:f:N:L,S:2:48,4 # shader L1 instruction cache config  {<nsets>:<bsize>:<assoc>,<rep>:<wr>:<alloc>:<wr_alloc>,<mshr>:<N>:<merge>,<mq>} 
-gpgpu_cache:dl1     S:1:128:256,L:L:s:N:L,A:256:8,16:0,32 # per-shader L1 data cache config  {<nsets>:<bsize>:<assoc>,<rep>:<wr>:<alloc>:<wr_alloc>,<mshr>:<N>:<merge>,<mq> | none}
-gpgpu_l1_banks                         4 # The number of L1 cache banks
-gpgpu_l1_banks_byte_interleaving                   32 # l1 banks byte interleaving granularity
-gpgpu_l1_banks_hashing_function                    0 # l1 banks hashing function
-gpgpu_l1_latency                      20 # L1 Hit Latency
-gpgpu_smem_latency                    20 # smem Latency
-gpgpu_cache:dl1PrefL1                 none # per-shader L1 data cache config  {<nsets>:<bsize>:<assoc>,<rep>:<wr>:<alloc>:<wr_alloc>,<mshr>:<N>:<merge>,<mq> | none}
-gpgpu_cache:dl1PrefShared                 none # per-shader L1 data cache config  {<nsets>:<bsize>:<assoc>,<rep>:<wr>:<alloc>:<wr_alloc>,<mshr>:<N>:<merge>,<mq> | none}
-gpgpu_gmem_skip_L1D                    0 # global memory access skip L1D cache (implements -Xptxas -dlcm=cg, default=no skip)
-gpgpu_perfect_mem                      0 # enable perfect memory mode (no cache miss)
-n_regfile_gating_group                    4 # group of lanes that should be read/written together)
-gpgpu_clock_gated_reg_file                    0 # enable clock gated reg file for power calculations
-gpgpu_clock_gated_lanes                    0 # enable clock gated lanes for power calculations
-gpgpu_shader_registers                65536 # Number of registers per shader core. Limits number of concurrent CTAs. (default 8192)
-gpgpu_registers_per_block                65536 # Maximum number of registers per CTA. (default 8192)
-gpgpu_ignore_resources_limitation                    0 # gpgpu_ignore_resources_limitation (default 0)
-gpgpu_shader_cta                      32 # Maximum number of concurrent CTAs in shader (default 8)
-gpgpu_num_cta_barriers                   16 # Maximum number of named barriers per CTA (default 16)
-gpgpu_n_clusters                      80 # number of processing clusters
-gpgpu_n_cores_per_cluster                    1 # number of simd cores per cluster
-gpgpu_n_cluster_ejection_buffer_size                   32 # number of packets in ejection buffer
-gpgpu_n_ldst_response_buffer_size                    2 # number of response packets in ld/st unit ejection buffer
-gpgpu_shmem_per_block                65536 # Size of shared memory per thread block or CTA (default 48kB)
-gpgpu_shmem_size                   98304 # Size of shared memory per shader core (default 16kB)
-gpgpu_adaptive_cache_config            536870913 # adaptive_cache_config
-gpgpu_shmem_sizeDefault                98304 # Size of shared memory per shader core (default 16kB)
-gpgpu_shmem_size_PrefL1                16384 # Size of shared memory per shader core (default 16kB)
-gpgpu_shmem_size_PrefShared                16384 # Size of shared memory per shader core (default 16kB)
-gpgpu_shmem_num_banks                   32 # Number of banks in the shared memory in each shader core (default 16)
-gpgpu_shmem_limited_broadcast                    0 # Limit shared memory to do one broadcast per cycle (default on)
-gpgpu_shmem_warp_parts                    1 # Number of portions a warp is divided into for shared memory bank conflict check 
-gpgpu_mem_unit_ports                    1 # The number of memory transactions allowed per core cycle
-gpgpu_shmem_warp_parts                    1 # Number of portions a warp is divided into for shared memory bank conflict check 
-gpgpu_warpdistro_shader                   -1 # Specify which shader core to collect the warp size distribution from
-gpgpu_warp_issue_shader                    0 # Specify which shader core to collect the warp issue distribution from
-gpgpu_local_mem_map                    1 # Mapping from local memory space address to simulated GPU physical address space (default = enabled)
-gpgpu_num_reg_banks                   16 # Number of register banks (default = 8)
-gpgpu_reg_bank_use_warp_id                    0 # Use warp ID in mapping registers to banks (default = off)
-gpgpu_sub_core_model                    1 # Sub Core Volta/Pascal model (default = off)
-gpgpu_enable_specialized_operand_collector                    0 # enable_specialized_operand_collector
-gpgpu_operand_collector_num_units_sp                    4 # number of collector units (default = 4)
-gpgpu_operand_collector_num_units_dp                    0 # number of collector units (default = 0)
-gpgpu_operand_collector_num_units_sfu                    4 # number of collector units (default = 4)
-gpgpu_operand_collector_num_units_int                    0 # number of collector units (default = 0)
-gpgpu_operand_collector_num_units_tensor_core                    4 # number of collector units (default = 4)
-gpgpu_operand_collector_num_units_mem                    2 # number of collector units (default = 2)
-gpgpu_operand_collector_num_units_gen                    8 # number of collector units (default = 0)
-gpgpu_operand_collector_num_in_ports_sp                    1 # number of collector unit in ports (default = 1)
-gpgpu_operand_collector_num_in_ports_dp                    0 # number of collector unit in ports (default = 0)
-gpgpu_operand_collector_num_in_ports_sfu                    1 # number of collector unit in ports (default = 1)
-gpgpu_operand_collector_num_in_ports_int                    0 # number of collector unit in ports (default = 0)
-gpgpu_operand_collector_num_in_ports_tensor_core                    1 # number of collector unit in ports (default = 1)
-gpgpu_operand_collector_num_in_ports_mem                    1 # number of collector unit in ports (default = 1)
-gpgpu_operand_collector_num_in_ports_gen                    8 # number of collector unit in ports (default = 0)
-gpgpu_operand_collector_num_out_ports_sp                    1 # number of collector unit in ports (default = 1)
-gpgpu_operand_collector_num_out_ports_dp                    0 # number of collector unit in ports (default = 0)
-gpgpu_operand_collector_num_out_ports_sfu                    1 # number of collector unit in ports (default = 1)
-gpgpu_operand_collector_num_out_ports_int                    0 # number of collector unit in ports (default = 0)
-gpgpu_operand_collector_num_out_ports_tensor_core                    1 # number of collector unit in ports (default = 1)
-gpgpu_operand_collector_num_out_ports_mem                    1 # number of collector unit in ports (default = 1)
-gpgpu_operand_collector_num_out_ports_gen                    8 # number of collector unit in ports (default = 0)
-gpgpu_coalesce_arch                   60 # Coalescing arch (GT200 = 13, Fermi = 20)
-gpgpu_num_sched_per_core                    4 # Number of warp schedulers per core
-gpgpu_max_insn_issue_per_warp                    1 # Max number of instructions that can be issued per warp in one cycle by scheduler (either 1 or 2)
-gpgpu_dual_issue_diff_exec_units                    1 # should dual issue use two different execution unit resources (Default = 1)
-gpgpu_simt_core_sim_order                    1 # Select the simulation order of cores in a cluster (0=Fix, 1=Round-Robin)
-gpgpu_pipeline_widths 4,4,4,4,4,4,4,4,4,4,8,4,4 # Pipeline widths ID_OC_SP,ID_OC_DP,ID_OC_INT,ID_OC_SFU,ID_OC_MEM,OC_EX_SP,OC_EX_DP,OC_EX_INT,OC_EX_SFU,OC_EX_MEM,EX_WB,ID_OC_TENSOR_CORE,OC_EX_TENSOR_CORE
-gpgpu_tensor_core_avail                    1 # Tensor Core Available (default=0)
-gpgpu_num_sp_units                     4 # Number of SP units (default=1)
-gpgpu_num_dp_units                     4 # Number of DP units (default=0)
-gpgpu_num_int_units                    4 # Number of INT units (default=0)
-gpgpu_num_sfu_units                    4 # Number of SF units (default=1)
-gpgpu_num_tensor_core_units                    4 # Number of tensor_core units (default=1)
-gpgpu_num_mem_units                    1 # Number if ldst units (default=1) WARNING: not hooked up to anything
-gpgpu_scheduler                      gto # Scheduler configuration: < lrr | gto | two_level_active > If two_level_active:<num_active_warps>:<inner_prioritization>:<outer_prioritization>For complete list of prioritization values see shader.h enum scheduler_prioritization_typeDefault: gto
-gpgpu_concurrent_kernel_sm                    0 # Support concurrent kernels on a SM (default = disabled)
-gpgpu_perfect_inst_const_cache                    1 # perfect inst and const cache mode, so all inst and const hits in the cache(default = disabled)
-gpgpu_inst_fetch_throughput                    4 # the number of fetched intruction per warp each cycle
-gpgpu_reg_file_port_throughput                    2 # the number ports of the register file
-specialized_unit_1         0,4,4,4,4,BRA # specialized unit config {<enabled>,<num_units>:<latency>:<initiation>,<ID_OC_SPEC>:<OC_EX_SPEC>,<NAME>}
-specialized_unit_2         0,4,4,4,4,BRA # specialized unit config {<enabled>,<num_units>:<latency>:<initiation>,<ID_OC_SPEC>:<OC_EX_SPEC>,<NAME>}
-specialized_unit_3         0,4,4,4,4,BRA # specialized unit config {<enabled>,<num_units>:<latency>:<initiation>,<ID_OC_SPEC>:<OC_EX_SPEC>,<NAME>}
-specialized_unit_4         0,4,4,4,4,BRA # specialized unit config {<enabled>,<num_units>:<latency>:<initiation>,<ID_OC_SPEC>:<OC_EX_SPEC>,<NAME>}
-specialized_unit_5         0,4,4,4,4,BRA # specialized unit config {<enabled>,<num_units>:<latency>:<initiation>,<ID_OC_SPEC>:<OC_EX_SPEC>,<NAME>}
-specialized_unit_6         0,4,4,4,4,BRA # specialized unit config {<enabled>,<num_units>:<latency>:<initiation>,<ID_OC_SPEC>:<OC_EX_SPEC>,<NAME>}
-specialized_unit_7         0,4,4,4,4,BRA # specialized unit config {<enabled>,<num_units>:<latency>:<initiation>,<ID_OC_SPEC>:<OC_EX_SPEC>,<NAME>}
-specialized_unit_8         0,4,4,4,4,BRA # specialized unit config {<enabled>,<num_units>:<latency>:<initiation>,<ID_OC_SPEC>:<OC_EX_SPEC>,<NAME>}
-gpgpu_perf_sim_memcpy                    1 # Fill the L2 cache on memcpy
-gpgpu_simple_dram_model                    0 # simple_dram_model with fixed latency and BW
-gpgpu_dram_scheduler                    1 # 0 = fifo, 1 = FR-FCFS (defaul)
-gpgpu_dram_partition_queues          64:64:64:64 # i2$:$2d:d2$:$2i
-l2_ideal                               0 # Use a ideal L2 cache that always hit
-gpgpu_cache:dl2     S:32:128:24,L:B:m:L:P,A:192:4,32:0,32 # unified banked L2 data cache config  {<nsets>:<bsize>:<assoc>,<rep>:<wr>:<alloc>:<wr_alloc>,<mshr>:<N>:<merge>,<mq>}
-gpgpu_cache:dl2_texture_only                    0 # L2 cache used for texture only
-gpgpu_n_mem                           32 # number of memory modules (e.g. memory controllers) in gpu
-gpgpu_n_sub_partition_per_mchannel                    2 # number of memory subpartition in each memory module
-gpgpu_n_mem_per_ctrlr                    1 # number of memory chips per memory controller
-gpgpu_memlatency_stat                   14 # track and display latency statistics 0x2 enables MC, 0x4 enables queue logs
-gpgpu_frfcfs_dram_sched_queue_size                   64 # 0 = unlimited (default); # entries per chip
-gpgpu_dram_return_queue_size                  192 # 0 = unlimited (default); # entries per chip
-gpgpu_dram_buswidth                   16 # default = 4 bytes (8 bytes per cycle at DDR)
-gpgpu_dram_burst_length                    2 # Burst length of each DRAM request (default = 4 data bus cycle)
-dram_data_command_freq_ratio                    2 # Frequency ratio between DRAM data bus and command bus (default = 2 times, i.e. DDR)
-gpgpu_dram_timing_opt nbk=16:CCD=1:RRD=3:RCD=12:RAS=28:RP=12:RC=40: CL=12:WL=2:CDLR=3:WR=10:nbkgrp=4:CCDL=2:RTPL=3 # DRAM timing parameters = {nbk:tCCD:tRRD:tRCD:tRAS:tRP:tRC:CL:WL:tCDLR:tWR:nbkgrp:tCCDL:tRTPL}
-gpgpu_l2_rop_latency                  160 # ROP queue latency (default 85)
-dram_latency                         200 # DRAM latency (default 30)
-dram_write_latency                   600 # DRAM write latency (default 100)
-dram_dual_bus_interface                    1 # dual_bus_interface (default = 0) 
-dram_bnk_indexing_policy                    0 # dram_bnk_indexing_policy (0 = normal indexing, 1 = Xoring with the higher bits) (Default = 0)
-dram_bnkgrp_indexing_policy                    1 # dram_bnkgrp_indexing_policy (0 = take higher bits, 1 = take lower bits) (Default = 0)
-dram_seperate_write_queue_enable                    0 # Seperate_Write_Queue_Enable
-dram_write_queue_size             32:28:16 # Write_Queue_Size
-dram_elimnate_rw_turnaround                    0 # elimnate_rw_turnaround i.e set tWTR and tRTW = 0
-icnt_flit_size                        40 # icnt_flit_size
-gpgpu_mem_addr_mapping dramid@8;00000000.00000000.00000000.00000000.0000RRRR.RRRRRRRR.RBBBCCCB.CCCSSSSS # mapping memory address to dram model {dramid@<start bit>;<memory address map>}
-gpgpu_mem_addr_test                    0 # run sweep test to check address mapping for aliased address
-gpgpu_mem_address_mask                    1 # 0 = old addressing mask, 1 = new addressing mask, 2 = new add. mask + flipped bank sel and chip sel bits
-gpgpu_memory_partition_indexing                    0 # 0 = no indexing, 1 = bitwise xoring, 2 = IPoly, 3 = custom indexing
-gpuwattch_xml_file         gpuwattch.xml # GPUWattch XML file
-power_simulation_enabled                    0 # Turn on power simulator (1=On, 0=Off)
-power_per_cycle_dump                    0 # Dump detailed power output each cycle
-power_trace_enabled                    0 # produce a file for the power trace (1=On, 0=Off)
-power_trace_zlevel                     6 # Compression level of the power trace output log (0=no comp, 9=highest)
-steady_power_levels_enabled                    0 # produce a file for the steady power levels (1=On, 0=Off)
-steady_state_definition                  8:4 # allowed deviation:number of samples
-gpgpu_max_cycle                        0 # terminates gpu simulation early (0 = no limit)
-gpgpu_max_insn                         0 # terminates gpu simulation early (0 = no limit)
-gpgpu_max_cta                          0 # terminates gpu simulation early (0 = no limit)
-gpgpu_max_completed_cta                 1000 # terminates gpu simulation early (0 = no limit)
-gpgpu_runtime_stat                   500 # display runtime statistics such as dram utilization {<freq>:<flag>}
-liveness_message_freq                    1 # Minimum number of seconds between simulation liveness messages (0 = always print)
-gpgpu_compute_capability_major                    7 # Major compute capability version number
-gpgpu_compute_capability_minor                    0 # Minor compute capability version number
-gpgpu_flush_l1_cache                    1 # Flush L1 cache at the end of each kernel call
-gpgpu_flush_l2_cache                    0 # Flush L2 cache at the end of each kernel call
-gpgpu_deadlock_detect                    1 # Stop the simulation at deadlock (1=on (default), 0=off)
-gpgpu_ptx_instruction_classification                    0 # if enabled will classify ptx instruction types per kernel (Max 255 kernels now)
-gpgpu_ptx_sim_mode                     0 # Select between Performance (default) or Functional simulation (1)
-gpgpu_clock_domains 1132.0:1132.0:1132.0:850.0 # Clock Domain Frequencies in MhZ {<Core Clock>:<ICNT Clock>:<L2 Clock>:<DRAM Clock>}
-gpgpu_max_concurrent_kernel                    8 # maximum kernels that can run concurrently on GPU
-gpgpu_cflog_interval                    0 # Interval between each snapshot in control flow logger
-visualizer_enabled               200f3ff8827e85c83ff3eefb99f59c8c  /home/pli11/Videos/parboil_benchmark/parboil/benchmarks/lbm/build/nvm_default/lbm
Extracting PTX file and ptxas options    1: lbm.1.sm_70.ptx -arch=sm_70
Extracting PTX file and ptxas options    2: lbm.2.sm_70.ptx -arch=sm_70
      0 # Turn on visualizer output (1=On, 0=Off)
-visualizer_outputfile                 NULL # Specifies the output log file for visualizer
-visualizer_zlevel                      6 # Compression level of the visualizer output log (0=no comp, 9=highest)
-gpgpu_stack_size_limit                 1024 # GPU thread stack size
-gpgpu_heap_size_limit              8388608 # GPU malloc heap size 
-gpgpu_runtime_sync_depth_limit                    2 # GPU device runtime synchronize depth
-gpgpu_runtime_pending_launch_count_limit                 2048 # GPU device runtime pending launch count
-trace_enabled                          0 # Turn on traces
-trace_components                    none # comma seperated list of traces to enable. Complete list found in trace_streams.tup. Default none
-trace_sampling_core                    0 # The core which is printed using CORE_DPRINTF. Default 0
-trace_sampling_memory_partition                   -1 # The memory partition which is printed using MEMPART_DPRINTF. Default -1 (i.e. all)
-enable_ptx_file_line_stats                    1 # Turn on PTX source line statistic profiling. (1 = On)
-ptx_line_stats_filename gpgpu_inst_stats.txt # Output file for PTX source line statistics.
-gpgpu_kernel_launch_latency                 5000 # Kernel launch latency in cycles. Default: 0
-gpgpu_cdp_enabled                      0 # Turn on CDP
-gpgpu_TB_launch_latency                    0 # thread block launch latency in cycles. Default: 0
DRAM Timing Options:
nbk                                    16 # number of banks
CCD                                     1 # column to column delay
RRD                                     3 # minimal delay between activation of rows in different banks
RCD                                    12 # row to column delay
RAS                                    28 # time needed to activate row
RP                                     12 # time needed to precharge (deactivate) row
RC                                     40 # row cycle time
CDLR                                    3 # switching from write to read (changes tWTR)
WR                                     10 # last data-in to row precharge
CL                                     12 # CAS latency
WL                                      2 # Write latency
nbkgrp                                  4 # number of bank groups
CCDL                                    2 # column to column delay between accesses to different bank groups
RTPL                                    3 # read to precharge delay between accesses to different bank groups
Total number of memory sub partition = 64
addr_dec_mask[CHIP]  = 0000000000001f00 	high:13 low:8
addr_dec_mask[BK]    = 00000000000e2000 	high:20 low:13
addr_dec_mask[ROW]   = 00000001fff00000 	high:33 low:20
addr_dec_mask[COL]   = 000000000001c0ff 	high:17 low:0
addr_dec_mask[BURST] = 000000000000001f 	high:5 low:0
sub_partition_id_mask = 0000000000002000
GPGPU-Sim uArch: clock freqs: 1132000000.000000:1132000000.000000:1132000000.000000:850000000.000000
GPGPU-Sim uArch: clock periods: 0.00000000088339222615:0.00000000088339222615:0.00000000088339222615:0.00000000117647058824
*** Initializing Memory Statistics ***
GPGPU-Sim uArch: performance model initialization complete.
self exe links to: /home/pli11/Videos/parboil_benchmark/parboil/benchmarks/lbm/build/nvm_default/lbm
self exe links to: /home/pli11/Videos/parboil_benchmark/parboil/benchmarks/lbm/build/nvm_default/lbm
10.1
GPGPU-Sim PTX: __cudaRegisterFatBinary, fat_cubin_handle = 1, filename=default
self exe links to: /home/pli11/Videos/parboil_benchmark/parboil/benchmarks/lbm/build/nvm_default/lbm
Running md5sum using "md5sum /home/pli11/Videos/parboil_benchmark/parboil/benchmarks/lbm/build/nvm_default/lbm "
self exe links to: /home/pli11/Videos/parboil_benchmark/parboil/benchmarks/lbm/build/nvm_default/lbm
Extracting specific PTX file named lbm.1.sm_70.ptx 
Extracting specific PTX file named lbm.2.sm_70.ptx 
self exe links to: /home/pli11/Videos/parboil_benchmark/parboil/benchmarks/lbm/build/nvm_default/lbm
self exe links to: /home/pli11/Videos/parboil_benchmark/parboil/benchmarks/lbm/build/nvm_default/lbm
10.1
GPGPU-Sim PTX: __cudaRegisterFatBinary, fat_cubin_handle = 2, filename=default
GPGPU-Sim PTX: __cudaRegisterFunction _Z32performStreamCollide_kernel_nvm2PfS_ : hostFun 0x0x405bab, fat_cubin_handle = 2
GPGPU-Sim PTX: Parsing lbm.1.sm_70.ptx
GPGPU-Sim PTX: finished parsing EMBEDDED .ptx file lbm.1.sm_70.ptx
GPGPU-Sim PTX: Parsing lbm.2.sm_70.ptx
GPGPU-Sim PTX: allocating global region for "NVM_log" from 0x100 to 0x4000100 (global memory space)
GPGPU-Sim PTX: allocating global region for "NVM_flag" from 0x4000100 to 0x4400100 (global memory space)
GPGPU-Sim PTX: instruction assembly for function '_Z32performStreamCollide_kernel_nvmgPfS_'...   done.
GPGPU-Sim PTX: instruction assembly for function '_Z32performStreamCollide_kernel_nvmiPfS_'...   done.
GPGPU-Sim PTX: instruction assembly for function '_Z32performStreamCollide_kernel_nvm3PfS_'...   done.
GPGPU-Sim PTX: instruction assembly for function '_Z32performStreamCollide_kernel_nvm4PfS_'...   done.
GPGPU-Sim PTX: instruction assembly for function '_Z32performStreamCollide_kernel_nvm5PfS_'...   done.
GPGPU-Sim PTX: instruction assembly for function '_Z32performStreamCollide_kernel_nvm6PfS_'...   done.
GPGPU-Sim PTX: instruction assembly for function '_Z27performStreamCollide_kernelPfS_'...   done.
GPGPU-Sim PTX: instruction assembly for function '_Z32performStreamCollide_kernel_nvmoPfS_'...   done.
GPGPU-Sim PTX: instruction assembly for function '_Z32performStreamCollide_kernel_nvmwPfS_'...   done.
GPGPU-Sim PTX: instruction assembly for function '_Z32performStreamCollide_kernel_nvmqPfS_'...   done.
GPGPU-Sim PTX: instruction assembly for function '_Z32performStreamCollide_kernel_nvmuPfS_'...   done.
GPGPU-Sim PTX: instruction assembly for function '_Z32performStreamCollide_kernel_nvmbPfS_'...   done.
GPGPU-Sim PTX: instruction assembly for function '_Z32performStreamCollide_kernel_nvmjPfS_'...   done.
GPGPU-Sim PTX: instruction assembly for function '_Z32performStreamCollide_kernel_nvmdPfS_'...   done.
GPGPU-Sim PTX: instruction assembly for function '_Z32performStreamCollide_kernel_nvmlPfS_'...   done.
GPGPU-Sim PTX: instruction assembly for function '_Z32performStreamCollide_kernel_nvm1PfS_'...   done.
GPGPU-Sim PTX: instruction assembly for function '_Z32performStreamCollide_kernel_nvm2PfS_'...   done.
GPGPU-Sim PTX: finished parsing EMBEDDED .ptx file lbm.2.sm_70.ptx
GPGPU-Sim PTX: loading globals with explicit initializers... 
GPGPU-Sim PTX: finished loading globals (0 bytes total).
GPGPU-Sim PTX: loading constants with explicit initializers...  done.
GPGPU-Sim PTX: Loading PTXInfo from lbm.1.sm_70.ptx
GPGPU-Sim PTX: Loading PTXInfo from lbm.2.sm_70.ptx
GPGPU-Sim PTX: Kernel '_Z32performStreamCollide_kernel_nvm2PfS_' : regs=44, lmem=0, smem=0, cmem=368
GPGPU-Sim PTX: Kernel '_Z32performStreamCollide_kernel_nvm1PfS_' : regs=44, lmem=0, smem=0, cmem=368
GPGPU-Sim PTX: Kernel '_Z32performStreamCollide_kernel_nvmlPfS_' : regs=40, lmem=0, smem=0, cmem=368
GPGPU-Sim PTX: Kernel '_Z32performStreamCollide_kernel_nvmdPfS_' : regs=40, lmem=0, smem=0, cmem=368
GPGPU-Sim PTX: Kernel '_Z32performStreamCollide_kernel_nvmjPfS_' : regs=40, lmem=0, smem=0, cmem=368
GPGPU-Sim PTX: Kernel '_Z32performStreamCollide_kernel_nvmbPfS_' : regs=40, lmem=0, smem=0, cmem=368
GPGPU-Sim PTX: Kernel '_Z32performStreamCollide_kernel_nvmuPfS_' : regs=40, lmem=0, smem=0, cmem=368
GPGPU-Sim PTX: Kernel '_Z32performStreamCollide_kernel_nvmqPfS_' : regs=40, lmem=0, smem=0, cmem=368
GPGPU-Sim PTX: Kernel '_Z32performStreamCollide_kernel_nvmwPfS_' : regs=40, lmem=0, smem=0, cmem=368
GPGPU-Sim PTX: Kernel '_Z32performStreamCollide_kernel_nvmoPfS_' : regs=40, lmem=0, smem=0, cmem=368
GPGPU-Sim PTX: Kernel '_Z27performStreamCollide_kernelPfS_' : regs=40, lmem=0, smem=0, cmem=368
GPGPU-Sim PTX: Kernel '_Z32performStreamCollide_kernel_nvm6PfS_' : regs=44, lmem=0, smem=0, cmem=368
GPGPU-Sim PTX: Kernel '_Z32performStreamCollide_kernel_nvm5PfS_' : regs=44, lmem=0, smem=0, cmem=368
GPGPU-Sim PTX: Kernel '_Z32performStreamCollide_kernel_nvm4PfS_' : regs=56, lmem=0, smem=0, cmem=368
GPGPU-Sim PTX: Kernel '_Z32performStreamCollide_kernel_nvm3PfS_' : regs=56, lmem=0, smem=0, cmem=368
GPGPU-Sim PTX: Kernel '_Z32performStreamCollide_kernel_nvmiPfS_' : regs=48, lmem=0, smem=0, cmem=368
GPGPU-Sim PTX: Kernel '_Z32performStreamCollide_kernel_nvmgPfS_' : regs=48, lmem=0, smem=0, cmem=368
GPGPU-Sim PTX: __cudaRegisterFunction _Z32performStreamCollide_kernel_nvm1PfS_ : hostFun 0x0x405a6b, fat_cubin_handle = 2
GPGPU-Sim PTX: __cudaRegisterFunction _Z32performStreamCollide_kernel_nvmlPfS_ : hostFun 0x0x40592b, fat_cubin_handle = 2
GPGPU-Sim PTX: __cudaRegisterFunction _Z32performStreamCollide_kernel_nvmdPfS_ : hostFun 0x0x4057eb, fat_cubin_handle = 2
GPGPU-Sim PTX: __cudaRegisterFunction _Z32performStreamCollide_kernel_nvmjPfS_ : hostFun 0x0x4056ab, fat_cubin_handle = 2
GPGPU-Sim PTX: __cudaRegisterFunction _Z32performStreamCollide_kernel_nvmbPfS_ : hostFun 0x0x40556b, fat_cubin_handle = 2
GPGPU-Sim PTX: __cudaRegisterFunction _Z32performStreamCollide_kernel_nvmuPfS_ : hostFun 0x0x40542b, fat_cubin_handle = 2
GPGPU-Sim PTX: __cudaRegisterFunction _Z32performStreamCollide_kernel_nvmqPfS_ : hostFun 0x0x4052eb, fat_cubin_handle = 2
GPGPU-Sim PTX: __cudaRegisterFunction _Z32performStreamCollide_kernel_nvmwPfS_ : hostFun 0x0x4051ab, fat_cubin_handle = 2
GPGPU-Sim PTX: __cudaRegisterFunction _Z32performStreamCollide_kernel_nvmoPfS_ : hostFun 0x0x40506b, fat_cubin_handle = 2
GPGPU-Sim PTX: __cudaRegisterFunction _Z27performStreamCollide_kernelPfS_ : hostFun 0x0x404f2b, fat_cubin_handle = 2
GPGPU-Sim PTX: __cudaRegisterFunction _Z32performStreamCollide_kernel_nvm6PfS_ : hostFun 0x0x404deb, fat_cubin_handle = 2
GPGPU-Sim PTX: __cudaRegisterFunction _Z32performStreamCollide_kernel_nvm5PfS_ : hostFun 0x0x404cab, fat_cubin_handle = 2
GPGPU-Sim PTX: __cudaRegisterFunction _Z32performStreamCollide_kernel_nvm4PfS_ : hostFun 0x0x404b6b, fat_cubin_handle = 2
GPGPU-Sim PTX: __cudaRegisterFunction _Z32performStreamCollide_kernel_nvm3PfS_ : hostFun 0x0x404a2b, fat_cubin_handle = 2
GPGPU-Sim PTX: __cudaRegisterFunction _Z32performStreamCollide_kernel_nvmiPfS_ : hostFun 0x0x4048eb, fat_cubin_handle = 2
GPGPU-Sim PTX: __cudaRegisterFunction _Z32performStreamCollide_kernel_nvmgPfS_ : hostFun 0x0x4047ab, fat_cubin_handle = 2
GPGPU-Sim PTX: __cudaRegisterVar: hostVar = 0x60f380; deviceAddress = NVM_log; deviceName = NVM_log
GPGPU-Sim PTX: __cudaRegisterVar: Registering const memory space of 67108864 bytes
GPGPU-Sim PTX registering global NVM_log hostVar to name mapping
GPGPU-Sim PTX: __cudaRegisterVar: hostVar = 0x460f380; deviceAddress = NVM_flag; deviceName = NVM_flag
GPGPU-Sim PTX: __cudaRegisterVar: Registering const memory space of 4194304 bytes
GPGPU-Sim PTX registering global NVM_flag hostVar to name mapping
LBM_allocateGrid: allocated 185.2 MByte
MAIN_printInfo:
	grid size      : 120 x 120 x 150 = 2.16 * 10^6 Cells
	nTimeSteps     : 3000
	result file    : /home/pli11/Videos/parboil_benchmark/parboil/benchmarks/lbm/run/long/reference.dat
	action         : store
	simulation type: lid-driven cavity
	obstacle file  : /home/pli11/Videos/parboil_benchmark/parboil/datasets/lbm/long/input/120_120_150_ldc.of

LBM_allocateGrid: allocated 185.2 MByte
LBM_allocateGrid: allocated 185.2 MByte
LBM_showGridStatistics:
	nObstacleCells:  343321 nAccelCells:   26912 nFluidCells: 1789767
	minRho:   1.0000 maxRho:   1.0000 mass: 2.160000e+06
	minU: 0.000000e+00 maxU: 0.000000e+00

event update
GPGPU-Sim: synchronize waiting for inactive GPU simulation
GPGPU-Sim API: Stream Manager State
GPGPU-Sim: detected inactive GPU simulation thread
GPGPU-Sim PTX: Setting up arguments for 8 bytes starting at 0x7fffed2757e8..
GPGPU-Sim PTX: Setting up arguments for 8 bytes starting at 0x7fffed2757e0..

GPGPU-Sim PTX: cudaLaunch for 0x0x4047ab (mode=performance simulation) on stream 0
GPGPU-Sim PTX: finding reconvergence points for '_Z32performStreamCollide_kernel_nvmgPfS_'...
GPGPU-Sim PTX: Finding dominators for '_Z32performStreamCollide_kernel_nvmgPfS_'...
GPGPU-Sim PTX: Finding immediate dominators for '_Z32performStreamCollide_kernel_nvmgPfS_'...
GPGPU-Sim PTX: Finding postdominators for '_Z32performStreamCollide_kernel_nvmgPfS_'...
GPGPU-Sim PTX: Finding immediate postdominators for '_Z32performStreamCollide_kernel_nvmgPfS_'...
GPGPU-Sim PTX: pre-decoding instructions for '_Z32performStreamCollide_kernel_nvmgPfS_'...
GPGPU-Sim PTX: reconvergence points for _Z32performStreamCollide_kernel_nvmgPfS_...
GPGPU-Sim PTX:  1 (potential) branch divergence @  PC=0x118 (lbm.2.sm_70.ptx:63) @%p2 bra BB0_1;
GPGPU-Sim PTX:    immediate post dominator      @  PC=0x6b0 (lbm.2.sm_70.ptx:248) shl.b64 %rd27, %rd1, 2;
GPGPU-Sim PTX:  2 (potential) branch divergence @  PC=0x120 (lbm.2.sm_70.ptx:64) bra.uni BB0_2;
GPGPU-Sim PTX:    immediate post dominator      @  PC=0x178 (lbm.2.sm_70.ptx:79) add.f32 %f58, %f257, %f255;
GPGPU-Sim PTX:  3 (potential) branch divergence @  PC=0x170 (lbm.2.sm_70.ptx:76) bra.uni BB0_3;
GPGPU-Sim PTX:    immediate post dominator      @  PC=0x6b0 (lbm.2.sm_70.ptx:248) shl.b64 %rd27, %rd1, 2;
GPGPU-Sim PTX:  4 (potential) branch divergence @  PC=0x860 (lbm.2.sm_70.ptx:342) @%p4 bra BB0_5;
GPGPU-Sim PTX:    immediate post dominator      @  PC=0x8c8 (lbm.2.sm_70.ptx:362) setp.eq.s32%p1, %r7, %r8;
GPGPU-Sim PTX:  5 (potential) branch divergence @  PC=0xa28 (lbm.2.sm_70.ptx:446) @!%p1 bra BB0_7;
GPGPU-Sim PTX:    immediate post dominator      @  PC=0xa98 (lbm.2.sm_70.ptx:468) ret;
GPGPU-Sim PTX:  6 (potential) branch divergence @  PC=0xa30 (lbm.2.sm_70.ptx:447) bra.uni BB0_6;
GPGPU-Sim PTX:    immediate post dominator      @  PC=0xa38 (lbm.2.sm_70.ptx:450) mov.u32 %r30, %nctaid.x;
GPGPU-Sim PTX: ... end of reconvergence points for _Z32performStreamCollide_kernel_nvmgPfS_
GPGPU-Sim PTX: ... done pre-decoding instructions for '_Z32performStreamCollide_kernel_nvmgPfS_'.
GPGPU-Sim PTX: pushing kernel '_Z32performStreamCollide_kernel_nvmgPfS_' to stream 0, gridDim= (120,150,1) blockDim = (120,1,1) 
GPGPU-Sim uArch: Shader 0 bind to kernel 1 '_Z32performStreamCollide_kernel_nvmgPfS_'
GPGPU-Sim uArch: CTA/core = 10, limited by: regs
GPGPU-Sim: Reconfigure L1 cache to 128KB
GPGPU-Sim uArch: Shader 1 bind to kernel 1 '_Z32performStreamCollide_kernel_nvmgPfS_'
GPGPU-Sim uArch: Shader 2 bind to kernel 1 '_Z32performStreamCollide_kernel_nvmgPfS_'
GPGPU-Sim uArch: Shader 3 bind to kernel 1 '_Z32performStreamCollide_kernel_nvmgPfS_'
GPGPU-Sim uArch: Shader 4 bind to kernel 1 '_Z32performStreamCollide_kernel_nvmgPfS_'
GPGPU-Sim uArch: Shader 5 bind to kernel 1 '_Z32performStreamCollide_kernel_nvmgPfS_'
GPGPU-Sim uArch: Shader 6 bind to kernel 1 '_Z32performStreamCollide_kernel_nvmgPfS_'
GPGPU-Sim uArch: Shader 7 bind to kernel 1 '_Z32performStreamCollide_kernel_nvmgPfS_'
GPGPU-Sim uArch: Shader 8 bind to kernel 1 '_Z32performStreamCollide_kernel_nvmgPfS_'
GPGPU-Sim uArch: Shader 9 bind to kernel 1 '_Z32performStreamCollide_kernel_nvmgPfS_'
GPGPU-Sim uArch: Shader 10 bind to kernel 1 '_Z32performStreamCollide_kernel_nvmgPfS_'
GPGPU-Sim uArch: Shader 11 bind to kernel 1 '_Z32performStreamCollide_kernel_nvmgPfS_'
GPGPU-Sim uArch: Shader 12 bind to kernel 1 '_Z32performStreamCollide_kernel_nvmgPfS_'
GPGPU-Sim uArch: Shader 13 bind to kernel 1 '_Z32performStreamCollide_kernel_nvmgPfS_'
GPGPU-Sim uArch: Shader 14 bind to kernel 1 '_Z32performStreamCollide_kernel_nvmgPfS_'
GPGPU-Sim uArch: Shader 15 bind to kernel 1 '_Z32performStreamCollide_kernel_nvmgPfS_'
GPGPU-Sim uArch: Shader 16 bind to kernel 1 '_Z32performStreamCollide_kernel_nvmgPfS_'
GPGPU-Sim uArch: Shader 17 bind to kernel 1 '_Z32performStreamCollide_kernel_nvmgPfS_'
GPGPU-Sim uArch: Shader 18 bind to kernel 1 '_Z32performStreamCollide_kernel_nvmgPfS_'
GPGPU-Sim uArch: Shader 19 bind to kernel 1 '_Z32performStreamCollide_kernel_nvmgPfS_'
GPGPU-Sim uArch: Shader 20 bind to kernel 1 '_Z32performStreamCollide_kernel_nvmgPfS_'
GPGPU-Sim uArch: Shader 21 bind to kernel 1 '_Z32performStreamCollide_kernel_nvmgPfS_'
GPGPU-Sim uArch: Shader 22 bind to kernel 1 '_Z32performStreamCollide_kernel_nvmgPfS_'
GPGPU-Sim uArch: Shader 23 bind to kernel 1 '_Z32performStreamCollide_kernel_nvmgPfS_'
GPGPU-Sim uArch: Shader 24 bind to kernel 1 '_Z32performStreamCollide_kernel_nvmgPfS_'
GPGPU-Sim uArch: Shader 25 bind to kernel 1 '_Z32performStreamCollide_kernel_nvmgPfS_'
GPGPU-Sim uArch: Shader 26 bind to kernel 1 '_Z32performStreamCollide_kernel_nvmgPfS_'
GPGPU-Sim uArch: Shader 27 bind to kernel 1 '_Z32performStreamCollide_kernel_nvmgPfS_'
GPGPU-Sim uArch: Shader 28 bind to kernel 1 '_Z32performStreamCollide_kernel_nvmgPfS_'
GPGPU-Sim uArch: Shader 29 bind to kernel 1 '_Z32performStreamCollide_kernel_nvmgPfS_'
GPGPU-Sim uArch: Shader 30 bind to kernel 1 '_Z32performStreamCollide_kernel_nvmgPfS_'
GPGPU-Sim uArch: Shader 31 bind to kernel 1 '_Z32performStreamCollide_kernel_nvmgPfS_'
GPGPU-Sim uArch: Shader 32 bind to kernel 1 '_Z32performStreamCollide_kernel_nvmgPfS_'
GPGPU-Sim uArch: Shader 33 bind to kernel 1 '_Z32performStreamCollide_kernel_nvmgPfS_'
GPGPU-Sim uArch: Shader 34 bind to kernel 1 '_Z32performStreamCollide_kernel_nvmgPfS_'
GPGPU-Sim uArch: Shader 35 bind to kernel 1 '_Z32performStreamCollide_kernel_nvmgPfS_'
GPGPU-Sim uArch: Shader 36 bind to kernel 1 '_Z32performStreamCollide_kernel_nvmgPfS_'
GPGPU-Sim uArch: Shader 37 bind to kernel 1 '_Z32performStreamCollide_kernel_nvmgPfS_'
GPGPU-Sim uArch: Shader 38 bind to kernel 1 '_Z32performStreamCollide_kernel_nvmgPfS_'
GPGPU-Sim uArch: Shader 39 bind to kernel 1 '_Z32performStreamCollide_kernel_nvmgPfS_'
GPGPU-Sim uArch: Shader 40 bind to kernel 1 '_Z32performStreamCollide_kernel_nvmgPfS_'
GPGPU-Sim uArch: Shader 41 bind to kernel 1 '_Z32performStreamCollide_kernel_nvmgPfS_'
GPGPU-Sim uArch: Shader 42 bind to kernel 1 '_Z32performStreamCollide_kernel_nvmgPfS_'
GPGPU-Sim uArch: Shader 43 bind to kernel 1 '_Z32performStreamCollide_kernel_nvmgPfS_'
GPGPU-Sim uArch: Shader 44 bind to kernel 1 '_Z32performStreamCollide_kernel_nvmgPfS_'
GPGPU-Sim uArch: Shader 45 bind to kernel 1 '_Z32performStreamCollide_kernel_nvmgPfS_'
GPGPU-Sim uArch: Shader 46 bind to kernel 1 '_Z32performStreamCollide_kernel_nvmgPfS_'
GPGPU-Sim uArch: Shader 47 bind to kernel 1 '_Z32performStreamCollide_kernel_nvmgPfS_'
GPGPU-Sim uArch: Shader 48 bind to kernel 1 '_Z32performStreamCollide_kernel_nvmgPfS_'
GPGPU-Sim uArch: Shader 49 bind to kernel 1 '_Z32performStreamCollide_kernel_nvmgPfS_'
GPGPU-Sim uArch: Shader 50 bind to kernel 1 '_Z32performStreamCollide_kernel_nvmgPfS_'
GPGPU-Sim uArch: Shader 51 bind to kernel 1 '_Z32performStreamCollide_kernel_nvmgPfS_'
GPGPU-Sim uArch: Shader 52 bind to kernel 1 '_Z32performStreamCollide_kernel_nvmgPfS_'
GPGPU-Sim uArch: Shader 53 bind to kernel 1 '_Z32performStreamCollide_kernel_nvmgPfS_'
GPGPU-Sim uArch: Shader 54 bind to kernel 1 '_Z32performStreamCollide_kernel_nvmgPfS_'
GPGPU-Sim uArch: Shader 55 bind to kernel 1 '_Z32performStreamCollide_kernel_nvmgPfS_'
GPGPU-Sim uArch: Shader 56 bind to kernel 1 '_Z32performStreamCollide_kernel_nvmgPfS_'
GPGPU-Sim uArch: Shader 57 bind to kernel 1 '_Z32performStreamCollide_kernel_nvmgPfS_'
GPGPU-Sim uArch: Shader 58 bind to kernel 1 '_Z32performStreamCollide_kernel_nvmgPfS_'
GPGPU-Sim uArch: Shader 59 bind to kernel 1 '_Z32performStreamCollide_kernel_nvmgPfS_'
GPGPU-Sim uArch: Shader 60 bind to kernel 1 '_Z32performStreamCollide_kernel_nvmgPfS_'
GPGPU-Sim uArch: Shader 61 bind to kernel 1 '_Z32performStreamCollide_kernel_nvmgPfS_'
GPGPU-Sim uArch: Shader 62 bind to kernel 1 '_Z32performStreamCollide_kernel_nvmgPfS_'
GPGPU-Sim uArch: Shader 63 bind to kernel 1 '_Z32performStreamCollide_kernel_nvmgPfS_'
GPGPU-Sim uArch: Shader 64 bind to kernel 1 '_Z32performStreamCollide_kernel_nvmgPfS_'
GPGPU-Sim uArch: Shader 65 bind to kernel 1 '_Z32performStreamCollide_kernel_nvmgPfS_'
GPGPU-Sim uArch: Shader 66 bind to kernel 1 '_Z32performStreamCollide_kernel_nvmgPfS_'
GPGPU-Sim uArch: Shader 67 bind to kernel 1 '_Z32performStreamCollide_kernel_nvmgPfS_'
GPGPU-Sim uArch: Shader 68 bind to kernel 1 '_Z32performStreamCollide_kernel_nvmgPfS_'
GPGPU-Sim uArch: Shader 69 bind to kernel 1 '_Z32performStreamCollide_kernel_nvmgPfS_'
GPGPU-Sim uArch: Shader 70 bind to kernel 1 '_Z32performStreamCollide_kernel_nvmgPfS_'
GPGPU-Sim uArch: Shader 71 bind to kernel 1 '_Z32performStreamCollide_kernel_nvmgPfS_'
GPGPU-Sim uArch: Shader 72 bind to kernel 1 '_Z32performStreamCollide_kernel_nvmgPfS_'
GPGPU-Sim uArch: Shader 73 bind to kernel 1 '_Z32performStreamCollide_kernel_nvmgPfS_'
GPGPU-Sim uArch: Shader 74 bind to kernel 1 '_Z32performStreamCollide_kernel_nvmgPfS_'
GPGPU-Sim uArch: Shader 75 bind to kernel 1 '_Z32performStreamCollide_kernel_nvmgPfS_'
GPGPU-Sim uArch: Shader 76 bind to kernel 1 '_Z32performStreamCollide_kernel_nvmgPfS_'
GPGPU-Sim uArch: Shader 77 bind to kernel 1 '_Z32performStreamCollide_kernel_nvmgPfS_'
GPGPU-Sim uArch: Shader 78 bind to kernel 1 '_Z32performStreamCollide_kernel_nvmgPfS_'
GPGPU-Sim uArch: Shader 79 bind to kernel 1 '_Z32performStreamCollide_kernel_nvmgPfS_'
kernel_name = _Z32performStreamCollide_kernel_nvmgPfS_ 
kernel_launch_uid = 1 
gpu_sim_cycle = 75987
gpu_sim_insn = 52912264
gpu_ipc =     696.3331
gpu_tot_sim_cycle = 75987
gpu_tot_sim_insn = 52912264
gpu_tot_ipc =     696.3331
gpu_tot_issued_cta = 1800
gpu_occupancy = 58.1675% 
gpu_tot_occupancy = 58.1675% 
max_total_param_size = 0
gpu_stall_dramfull = 2504609
gpu_stall_icnt2sh    = 0
partiton_level_parallism =      17.9749
partiton_level_parallism_total  =      17.9749
partiton_level_parallism_util =      20.2532
partiton_level_parallism_util_total  =      20.2532
L2_BW  =     645.0563 GB/Sec
L2_BW_total  =     645.0563 GB/Sec
gpu_total_sim_rate=77470
############## bottleneck_stats #############
cycles: core 75987, icnt 75987, l2 75987, dram 57057
gpu_ipc	696.333
gpu_tot_issued_cta = 1800, average cycles = 42
n_dram_writes	 0, n_dram_reads	 0
n_GLOBAL_ACC_R	 507535 
n_LOCAL_ACC_R	 0 
n_CONST_ACC_R	 0 
n_TEXTURE_ACC_R	 0 
n_GLOBAL_ACC_W	 0 
n_LOCAL_ACC_W	 0 
n_L1_WRBK_ACC	 0 
n_L2_WRBK_ACC	 164273 
n_L1_WR_ALLOC_R	 0 
n_L2_WR_ALLOC_R	 0 

n_sm	 80, n_schedulers	 4
scheduler util	0.076	80
L1D data util	0.933	80	1.044	63
L1D tag util	0.891	80	0.924	33
L2 data util	0.514	64	0.544	29
L2 tag util	0.281	64	0.301	32
n_l2_access	 1366163
icnt s2m util	0.000	0	0.000	32	flits per packet: -nan
icnt m2s util	0.000	0	0.000	32	flits per packet: -nan
sum=0
n_mem	 32
dram util	0.623	32	0.641	14

latency_dram:	796116474, num_dram_reqs:	1352872
DRAM latency:	3763

n_reg	65536, n_smem	98304, n_thread	2048, n_tb	32
reg file	0.938
smem size	0.000
thread slot	0.625
TB slot    	0.312
L1I tag util	0.156	80	0.175	68

n_mem_pipe	1, n_sp_pipe	4, n_sfu_pipe	4
mem pipe util	0.062	80	0.070	63
sp pipe util	0.056	80	0.065	68
sfu pipe util	0.003	80	0.003	68
ldst mem cycle	0.000	0	0.000	68

smem port	0.000	0

n_reg_bank	16
reg port	0.043	16	0.056	3
L1D tag util	0.891	80	0.924	33
L1D fill util	0.083	80	0.095	63
n_l1d_mshr	4096
L1D mshr util	0.096	80
n_l1d_missq	16
L1D missq util	0.841	80
L1D hit rate	0.000
L1D miss rate	0.262
L1D rsfail rate	0.738
L2 tag util	0.281	64	0.301	32
L2 fill util	0.104	64	0.111	16
n_l2_mshr	192
n_l2_missq	32
L2 mshr util	0.551	64	0.603	33
L2 missq util	0.007	64	0.007	57
L2 hit rate	0.000
L2 miss rate	0.995
L2 rsfail rate	0.005

dram activity	0.916	32	0.926	8

load trans eff	1.000
load trans sz	32.000
load_useful_bytes 16934336, load_transaction_bytes 16934336, icnt_m2s_bytes 0
n_gmem_load_insns 141090, n_gmem_load_accesses 529198
n_smem_access_insn 0, n_smem_accesses 0

tmp_counter/12	0.333

run 0.013, fetch 0.001, sync 0.525, control 0.000, data 0.413, struct 0.047
############ end_bottleneck_stats #############

========= Core cache stats =========
L1I_cache:
	L1I_total_cache_accesses = 0
	L1I_total_cache_misses = 0
	L1I_total_cache_pending_hits = 0
	L1I_total_cache_reservation_fails = 0
L1D_cache:
	L1D_cache_core[0]: Access = 16573, Miss = 16573, Miss_rate = 1.000, Pending_hits = 0, Reservation_fails = 50695
	L1D_cache_core[1]: Access = 18019, Miss = 18019, Miss_rate = 1.000, Pending_hits = 0, Reservation_fails = 48239
	L1D_cache_core[2]: Access = 16376, Miss = 16376, Miss_rate = 1.000, Pending_hits = 0, Reservation_fails = 53399
	L1D_cache_core[3]: Access = 17587, Miss = 17587, Miss_rate = 1.000, Pending_hits = 0, Reservation_fails = 50744
	L1D_cache_core[4]: Access = 16755, Miss = 16755, Miss_rate = 1.000, Pending_hits = 0, Reservation_fails = 50298
	L1D_cache_core[5]: Access = 17532, Miss = 17532, Miss_rate = 1.000, Pending_hits = 0, Reservation_fails = 51793
	L1D_cache_core[6]: Access = 18456, Miss = 18456, Miss_rate = 1.000, Pending_hits = 0, Reservation_fails = 49393
	L1D_cache_core[7]: Access = 17913, Miss = 17913, Miss_rate = 1.000, Pending_hits = 0, Reservation_fails = 50078
	L1D_cache_core[8]: Access = 17239, Miss = 17239, Miss_rate = 1.000, Pending_hits = 0, Reservation_fails = 48871
	L1D_cache_core[9]: Access = 18293, Miss = 18293, Miss_rate = 1.000, Pending_hits = 0, Reservation_fails = 49054
	L1D_cache_core[10]: Access = 17754, Miss = 17754, Miss_rate = 1.000, Pending_hits = 0, Reservation_fails = 48412
	L1D_cache_core[11]: Access = 18243, Miss = 18243, Miss_rate = 1.000, Pending_hits = 0, Reservation_fails = 50893
	L1D_cache_core[12]: Access = 19263, Miss = 19263, Miss_rate = 1.000, Pending_hits = 0, Reservation_fails = 47858
	L1D_cache_core[13]: Access = 17251, Miss = 17251, Miss_rate = 1.000, Pending_hits = 0, Reservation_fails = 49367
	L1D_cache_core[14]: Access = 19454, Miss = 19454, Miss_rate = 1.000, Pending_hits = 0, Reservation_fails = 48659
	L1D_cache_core[15]: Access = 17811, Miss = 17811, Miss_rate = 1.000, Pending_hits = 0, Reservation_fails = 47364
	L1D_cache_core[16]: Access = 19267, Miss = 19267, Miss_rate = 1.000, Pending_hits = 0, Reservation_fails = 49809
	L1D_cache_core[17]: Access = 17775, Miss = 17775, Miss_rate = 1.000, Pending_hits = 0, Reservation_fails = 50863
	L1D_cache_core[18]: Access = 17126, Miss = 17126, Miss_rate = 1.000, Pending_hits = 0, Reservation_fails = 50881
	L1D_cache_core[19]: Access = 18103, Miss = 18103, Miss_rate = 1.000, Pending_hits = 0, Reservation_fails = 50046
	L1D_cache_core[20]: Access = 17283, Miss = 17283, Miss_rate = 1.000, Pending_hits = 0, Reservation_fails = 50150
	L1D_cache_core[21]: Access = 18561, Miss = 18561, Miss_rate = 1.000, Pending_hits = 0, Reservation_fails = 47032
	L1D_cache_core[22]: Access = 17481, Miss = 17481, Miss_rate = 1.000, Pending_hits = 0, Reservation_fails = 52701
	L1D_cache_core[23]: Access = 18477, Miss = 18477, Miss_rate = 1.000, Pending_hits = 0, Reservation_fails = 49927
	L1D_cache_core[24]: Access = 18201, Miss = 18201, Miss_rate = 1.000, Pending_hits = 0, Reservation_fails = 48099
	L1D_cache_core[25]: Access = 17542, Miss = 17542, Miss_rate = 1.000, Pending_hits = 0, Reservation_fails = 51812
	L1D_cache_core[26]: Access = 18112, Miss = 18112, Miss_rate = 1.000, Pending_hits = 0, Reservation_fails = 48605
	L1D_cache_core[27]: Access = 18828, Miss = 18828, Miss_rate = 1.000, Pending_hits = 0, Reservation_fails = 50458
	L1D_cache_core[28]: Access = 16268, Miss = 16268, Miss_rate = 1.000, Pending_hits = 0, Reservation_fails = 53213
	L1D_cache_core[29]: Access = 18372, Miss = 18372, Miss_rate = 1.000, Pending_hits = 0, Reservation_fails = 50378
	L1D_cache_core[30]: Access = 18022, Miss = 18022, Miss_rate = 1.000, Pending_hits = 0, Reservation_fails = 48669
	L1D_cache_core[31]: Access = 17887, Miss = 17887, Miss_rate = 1.000, Pending_hits = 0, Reservation_fails = 48629
	L1D_cache_core[32]: Access = 18242, Miss = 18242, Miss_rate = 1.000, Pending_hits = 0, Reservation_fails = 48643
	L1D_cache_core[33]: Access = 16389, Miss = 16389, Miss_rate = 1.000, Pending_hits = 0, Reservation_fails = 53840
	L1D_cache_core[34]: Access = 16885, Miss = 16885, Miss_rate = 1.000, Pending_hits = 0, Reservation_fails = 50479
	L1D_cache_core[35]: Access = 18538, Miss = 18538, Miss_rate = 1.000, Pending_hits = 0, Reservation_fails = 46505
	L1D_cache_core[36]: Access = 17389, Miss = 17389, Miss_rate = 1.000, Pending_hits = 0, Reservation_fails = 51252
	L1D_cache_core[37]: Access = 16027, Miss = 16027, Miss_rate = 1.000, Pending_hits = 0, Reservation_fails = 52115
	L1D_cache_core[38]: Access = 17149, Miss = 17149, Miss_rate = 1.000, Pending_hits = 0, Reservation_fails = 49003
	L1D_cache_core[39]: Access = 17083, Miss = 17083, Miss_rate = 1.000, Pending_hits = 0, Reservation_fails = 52872
	L1D_cache_core[40]: Access = 18440, Miss = 18440, Miss_rate = 1.000, Pending_hits = 0, Reservation_fails = 50322
	L1D_cache_core[41]: Access = 18965, Miss = 18965, Miss_rate = 1.000, Pending_hits = 0, Reservation_fails = 44979
	L1D_cache_core[42]: Access = 16401, Miss = 16401, Miss_rate = 1.000, Pending_hits = 0, Reservation_fails = 50381
	L1D_cache_core[43]: Access = 16746, Miss = 16746, Miss_rate = 1.000, Pending_hits = 0, Reservation_fails = 50930
	L1D_cache_core[44]: Access = 17673, Miss = 17673, Miss_rate = 1.000, Pending_hits = 0, Reservation_fails = 48262
	L1D_cache_core[45]: Access = 17464, Miss = 17464, Miss_rate = 1.000, Pending_hits = 0, Reservation_fails = 50019
	L1D_cache_core[46]: Access = 17954, Miss = 17954, Miss_rate = 1.000, Pending_hits = 0, Reservation_fails = 50127
	L1D_cache_core[47]: Access = 18319, Miss = 18319, Miss_rate = 1.000, Pending_hits = 0, Reservation_fails = 50686
	L1D_cache_core[48]: Access = 16352, Miss = 16352, Miss_rate = 1.000, Pending_hits = 0, Reservation_fails = 52119
	L1D_cache_core[49]: Access = 17455, Miss = 17455, Miss_rate = 1.000, Pending_hits = 0, Reservation_fails = 52488
	L1D_cache_core[50]: Access = 17677, Miss = 17677, Miss_rate = 1.000, Pending_hits = 0, Reservation_fails = 51581
	L1D_cache_core[51]: Access = 17995, Miss = 17995, Miss_rate = 1.000, Pending_hits = 0, Reservation_fails = 48215
	L1D_cache_core[52]: Access = 17818, Miss = 17818, Miss_rate = 1.000, Pending_hits = 0, Reservation_fails = 47288
	L1D_cache_core[53]: Access = 17848, Miss = 17848, Miss_rate = 1.000, Pending_hits = 0, Reservation_fails = 50753
	L1D_cache_core[54]: Access = 16165, Miss = 16165, Miss_rate = 1.000, Pending_hits = 0, Reservation_fails = 53410
	L1D_cache_core[55]: Access = 17624, Miss = 17624, Miss_rate = 1.000, Pending_hits = 0, Reservation_fails = 49748
	L1D_cache_core[56]: Access = 17366, Miss = 17366, Miss_rate = 1.000, Pending_hits = 0, Reservation_fails = 51620
	L1D_cache_core[57]: Access = 17910, Miss = 17910, Miss_rate = 1.000, Pending_hits = 0, Reservation_fails = 50005
	L1D_cache_core[58]: Access = 17544, Miss = 17544, Miss_rate = 1.000, Pending_hits = 0, Reservation_fails = 50814
	L1D_cache_core[59]: Access = 18386, Miss = 18386, Miss_rate = 1.000, Pending_hits = 0, Reservation_fails = 47717
	L1D_cache_core[60]: Access = 17960, Miss = 17960, Miss_rate = 1.000, Pending_hits = 0, Reservation_fails = 47855
	L1D_cache_core[61]: Access = 17986, Miss = 17986, Miss_rate = 1.000, Pending_hits = 0, Reservation_fails = 50719
	L1D_cache_core[62]: Access = 15181, Miss = 15181, Miss_rate = 1.000, Pending_hits = 0, Reservation_fails = 53326
	L1D_cache_core[63]: Access = 19837, Miss = 19837, Miss_rate = 1.000, Pending_hits = 0, Reservation_fails = 45513
	L1D_cache_core[64]: Access = 18203, Miss = 18203, Miss_rate = 1.000, Pending_hits = 0, Reservation_fails = 49386
	L1D_cache_core[65]: Access = 18244, Miss = 18244, Miss_rate = 1.000, Pending_hits = 0, Reservation_fails = 50428
	L1D_cache_core[66]: Access = 17415, Miss = 17415, Miss_rate = 1.000, Pending_hits = 0, Reservation_fails = 50455
	L1D_cache_core[67]: Access = 16813, Miss = 16813, Miss_rate = 1.000, Pending_hits = 0, Reservation_fails = 51321
	L1D_cache_core[68]: Access = 19385, Miss = 19385, Miss_rate = 1.000, Pending_hits = 0, Reservation_fails = 47929
	L1D_cache_core[69]: Access = 17714, Miss = 17714, Miss_rate = 1.000, Pending_hits = 0, Reservation_fails = 49650
	L1D_cache_core[70]: Access = 18005, Miss = 18005, Miss_rate = 1.000, Pending_hits = 0, Reservation_fails = 51278
	L1D_cache_core[71]: Access = 16407, Miss = 16407, Miss_rate = 1.000, Pending_hits = 0, Reservation_fails = 52242
	L1D_cache_core[72]: Access = 17945, Miss = 17945, Miss_rate = 1.000, Pending_hits = 0, Reservation_fails = 49821
	L1D_cache_core[73]: Access = 18024, Miss = 18024, Miss_rate = 1.000, Pending_hits = 0, Reservation_fails = 48584
	L1D_cache_core[74]: Access = 17561, Miss = 17561, Miss_rate = 1.000, Pending_hits = 0, Reservation_fails = 50146
	L1D_cache_core[75]: Access = 18354, Miss = 18354, Miss_rate = 1.000, Pending_hits = 0, Reservation_fails = 50370
	L1D_cache_core[76]: Access = 17134, Miss = 17134, Miss_rate = 1.000, Pending_hits = 0, Reservation_fails = 50677
	L1D_cache_core[77]: Access = 17388, Miss = 17388, Miss_rate = 1.000, Pending_hits = 0, Reservation_fails = 50279
	L1D_cache_core[78]: Access = 19131, Miss = 19131, Miss_rate = 1.000, Pending_hits = 0, Reservation_fails = 48049
	L1D_cache_core[79]: Access = 17769, Miss = 17769, Miss_rate = 1.000, Pending_hits = 0, Reservation_fails = 49267
	L1D_total_cache_accesses = 1418084
	L1D_total_cache_misses = 1418084
	L1D_total_cache_miss_rate = 1.0000
	L1D_total_cache_pending_hits = 0
	L1D_total_cache_reservation_fails = 3999857
	L1D_cache_data_port_util = 0.000
	L1D_cache_fill_port_util = 0.089
L1C_cache:
	L1C_total_cache_accesses = 0
	L1C_total_cache_misses = 0
	L1C_total_cache_pending_hits = 0
	L1C_total_cache_reservation_fails = 0
L1T_cache:
	L1T_total_cache_accesses = 0
	L1T_total_cache_misses = 0
	L1T_total_cache_pending_hits = 0
	L1T_total_cache_reservation_fails = 0

Total_core_cache_stats:
	Total_core_cache_stats_breakdown[GLOBAL_ACC_R][HIT] = 0
	Total_core_cache_stats_breakdown[GLOBAL_ACC_R][HIT_RESERVED] = 0
	Total_core_cache_stats_breakdown[GLOBAL_ACC_R][MISS] = 528034
	Total_core_cache_stats_breakdown[GLOBAL_ACC_R][RESERVATION_FAIL] = 1507267
	Total_core_cache_stats_breakdown[GLOBAL_ACC_R][SECTOR_MISS] = 0
	Total_core_cache_stats_breakdown[LOCAL_ACC_R][HIT] = 0
	Total_core_cache_stats_breakdown[LOCAL_ACC_R][HIT_RESERVED] = 0
	Total_core_cache_stats_breakdown[LOCAL_ACC_R][MISS] = 0
	Total_core_cache_stats_breakdown[LOCAL_ACC_R][RESERVATION_FAIL] = 0
	Total_core_cache_stats_breakdown[LOCAL_ACC_R][SECTOR_MISS] = 0
	Total_core_cache_stats_breakdown[CONST_ACC_R][HIT] = 0
	Total_core_cache_stats_breakdown[CONST_ACC_R][HIT_RESERVED] = 0
	Total_core_cache_stats_breakdown[CONST_ACC_R][MISS] = 0
	Total_core_cache_stats_breakdown[CONST_ACC_R][RESERVATION_FAIL] = 0
	Total_core_cache_stats_breakdown[CONST_ACC_R][SECTOR_MISS] = 0
	Total_core_cache_stats_breakdown[TEXTURE_ACC_R][HIT] = 0
	Total_core_cache_stats_breakdown[TEXTURE_ACC_R][HIT_RESERVED] = 0
	Total_core_cache_stats_breakdown[TEXTURE_ACC_R][MISS] = 0
	Total_core_cache_stats_breakdown[TEXTURE_ACC_R][RESERVATION_FAIL] = 0
	Total_core_cache_stats_breakdown[TEXTURE_ACC_R][SECTOR_MISS] = 0
	Total_core_cache_stats_breakdown[GLOBAL_ACC_W][HIT] = 0
	Total_core_cache_stats_breakdown[GLOBAL_ACC_W][HIT_RESERVED] = 0
	Total_core_cache_stats_breakdown[GLOBAL_ACC_W][MISS] = 890050
	Total_core_cache_stats_breakdown[GLOBAL_ACC_W][RESERVATION_FAIL] = 2492590
	Total_core_cache_stats_breakdown[GLOBAL_ACC_W][SECTOR_MISS] = 0
	Total_core_cache_stats_breakdown[LOCAL_ACC_W][HIT] = 0
	Total_core_cache_stats_breakdown[LOCAL_ACC_W][HIT_RESERVED] = 0
	Total_core_cache_stats_breakdown[LOCAL_ACC_W][MISS] = 0
	Total_core_cache_stats_breakdown[LOCAL_ACC_W][RESERVATION_FAIL] = 0
	Total_core_cache_stats_breakdown[LOCAL_ACC_W][SECTOR_MISS] = 0
	Total_core_cache_stats_breakdown[L1_WRBK_ACC][HIT] = 0
	Total_core_cache_stats_breakdown[L1_WRBK_ACC][HIT_RESERVED] = 0
	Total_core_cache_stats_breakdown[L1_WRBK_ACC][MISS] = 0
	Total_core_cache_stats_breakdown[L1_WRBK_ACC][RESERVATION_FAIL] = 0
	Total_core_cache_stats_breakdown[L1_WRBK_ACC][SECTOR_MISS] = 0
	Total_core_cache_stats_breakdown[L2_WRBK_ACC][HIT] = 0
	Total_core_cache_stats_breakdown[L2_WRBK_ACC][HIT_RESERVED] = 0
	Total_core_cache_stats_breakdown[L2_WRBK_ACC][MISS] = 0
	Total_core_cache_stats_breakdown[L2_WRBK_ACC][RESERVATION_FAIL] = 0
	Total_core_cache_stats_breakdown[L2_WRBK_ACC][SECTOR_MISS] = 0
	Total_core_cache_stats_breakdown[INST_ACC_R][HIT] = 0
	Total_core_cache_stats_breakdown[INST_ACC_R][HIT_RESERVED] = 0
	Total_core_cache_stats_breakdown[INST_ACC_R][MISS] = 0
	Total_core_cache_stats_breakdown[INST_ACC_R][RESERVATION_FAIL] = 0
	Total_core_cache_stats_breakdown[INST_ACC_R][SECTOR_MISS] = 0
	Total_core_cache_stats_breakdown[L1_WR_ALLOC_R][HIT] = 0
	Total_core_cache_stats_breakdown[L1_WR_ALLOC_R][HIT_RESERVED] = 0
	Total_core_cache_stats_breakdown[L1_WR_ALLOC_R][MISS] = 0
	Total_core_cache_stats_breakdown[L1_WR_ALLOC_R][RESERVATION_FAIL] = 0
	Total_core_cache_stats_breakdown[L1_WR_ALLOC_R][SECTOR_MISS] = 0
	Total_core_cache_stats_breakdown[L2_WR_ALLOC_R][HIT] = 0
	Total_core_cache_stats_breakdown[L2_WR_ALLOC_R][HIT_RESERVED] = 0
	Total_core_cache_stats_breakdown[L2_WR_ALLOC_R][MISS] = 0
	Total_core_cache_stats_breakdown[L2_WR_ALLOC_R][RESERVATION_FAIL] = 0
	Total_core_cache_stats_breakdown[L2_WR_ALLOC_R][SECTOR_MISS] = 0
	Total_core_cache_stats_breakdown[GLOBAL_ACC_R][TOTAL_ACCESS] = 528034
	Total_core_cache_stats_breakdown[GLOBAL_ACC_W][TOTAL_ACCESS] = 890050

Total_core_cache_fail_stats:
	Total_core_cache_fail_stats_breakdown[GLOBAL_ACC_R][MISS_QUEUE_FULL] = 1507267
	Total_core_cache_fail_stats_breakdown[GLOBAL_ACC_W][MISS_QUEUE_FULL] = 2492590
Shader 0 warp_id issue ditsribution:
warp_id:
0, 1, 2, 3, 4, 5, 6, 7, 8, 9, 10, 11, 12, 13, 14, 15, 16, 17, 18, 19, 20, 21, 22, 23, 24, 25, 26, 27, 28, 29, 30, 31, 32, 33, 34, 35, 36, 37, 38, 39, 
distro:
511, 452, 452, 462, 496, 450, 449, 460, 664, 607, 607, 627, 496, 449, 449, 460, 621, 566, 566, 586, 599, 554, 566, 586, 476, 431, 429, 440, 508, 470, 525, 535, 557, 532, 546, 550, 403, 396, 396, 402, 
gpgpu_n_tot_thrd_icount = 59037792
gpgpu_n_tot_w_icount = 1844931
gpgpu_n_stall_shd_mem = 5027998
gpgpu_n_mem_read_local = 0
gpgpu_n_mem_write_local = 0
gpgpu_n_mem_read_global = 527709
gpgpu_n_mem_write_global = 889161
gpgpu_n_mem_texture = 0
gpgpu_n_mem_const = 0
gpgpu_n_load_insn  = 4227944
gpgpu_n_store_insn = 6241845
gpgpu_n_shmem_insn = 0
gpgpu_n_sstarr_insn = 0
gpgpu_n_tex_insn = 0
gpgpu_n_const_mem_insn = 0
gpgpu_n_param_mem_insn = 430800
gpgpu_n_shmem_bkconflict = 0
gpgpu_n_cache_bkconflict = 0
gpgpu_n_intrawarp_mshr_merge = 0
gpgpu_n_cmem_portconflict = 0
gpgpu_stall_shd_mem[c_mem][resource_stall] = 0
gpgpu_stall_shd_mem[s_mem][bk_conf] = 0
gpgpu_stall_shd_mem[gl_mem][resource_stall] = 5027998
gpgpu_stall_shd_mem[gl_mem][coal_stall] = 0
gpgpu_stall_shd_mem[gl_mem][data_port_stall] = 0
gpu_reg_bank_conflict_stalls = 0
Warp Occupancy Distribution:
Stall:17636024	W0_Idle:8254	W0_Scoreboard:3218758	W1:60139	W2:0	W3:0	W4:0	W5:0	W6:0	W7:0	W8:0	W9:0	W10:0	W11:0	W12:0	W13:0	W14:0	W15:0	W16:0	W17:0	W18:0	W19:0	W20:0	W21:0	W22:0	W23:246370	W24:204715	W25:0	W26:0	W27:0	W28:0	W29:0	W30:0	W31:238937	W32:1102323
single_issue_nums: WS0:483531	WS1:448058	WS2:454534	WS3:466361	
dual_issue_nums: WS0:0	WS1:0	WS2:0	WS3:0	
traffic_breakdown_coretomem[GLOBAL_ACC_R] = 4221672 {8:527709,}
traffic_breakdown_coretomem[GLOBAL_ACC_W] = 35566440 {40:889161,}
traffic_breakdown_memtocore[GLOBAL_ACC_R] = 20244440 {40:506111,}
traffic_breakdown_memtocore[GLOBAL_ACC_W] = 6774312 {8:846789,}
maxmflatency = 15296 
max_icnt2mem_latency = 13648 
maxmrqlatency = 1737 
max_icnt2sh_latency = 643 
averagemflatency = 3762 
avg_icnt2mem_latency = 3002 
avg_mrq_latency = 181 
avg_icnt2sh_latency = 16 
mrq_lat_table:30358 	25043 	12953 	19972 	42727 	86420 	134703 	169227 	95432 	49611 	3678 	0 	0 	0 	0 	0 	0 	0 	0 	0 	0 	0 	0 	0 	0 	0 	0 	0 	0 	0 	0 	0 	
dq_lat_table:0 	0 	0 	0 	0 	0 	0 	0 	0 	0 	0 	0 	0 	0 	0 	0 	0 	0 	0 	0 	0 	0 	0 	0 	0 	0 	0 	0 	0 	0 	0 	0 	
mf_lat_table:0 	0 	0 	0 	0 	0 	0 	11 	1546 	18706 	340287 	462890 	476681 	52754 	0 	0 	0 	0 	0 	0 	0 	0 	0 	0 	0 	0 	0 	0 	0 	0 	0 	0 	
icnt2mem_lat_table:0 	0 	0 	0 	379 	3776 	7564 	10390 	2759 	50658 	441954 	517493 	315682 	15203 	0 	0 	0 	0 	0 	0 	0 	0 	0 	0 	
icnt2sh_lat_table:0 	902181 	177812 	108197 	65110 	31437 	24375 	20544 	20725 	2494 	0 	0 	0 	0 	0 	0 	0 	0 	0 	0 	0 	0 	0 	0 	
mf_lat_pw_table:0 	0 	0 	0 	0 	0 	0 	0 	0 	2 	16 	52 	70 	0 	0 	0 	0 	0 	0 	0 	0 	0 	0 	0 	0 	0 	0 	0 	0 	0 	0 	0 	
maximum concurrent accesses to same row:
dram[0]:        12        12        12        24        20        20        16        20        12        20        20        20        16        20        12        12 
dram[1]:        11        11        12        21        17        17        15        15        16        15        14        15        12        18        10        11 
dram[2]:        12        16        20        16        24        20        16        20        12        20        20        20        20        16        12        12 
dram[3]:        11        14        14        14        21        17        15        15        16        15        14        15        15        18        14        14 
dram[4]:        16        16        16        16        20        20        16        20        12        20        20        20        12        16        16        13 
dram[5]:        14        14        14        14        14        17        15        15        16        15        14        15        18        18        14        11 
dram[6]:        20        16        16        16        24        20        16        20        13        20        20        20        12        12        12        16 
dram[7]:        14        14        14        14        21        17        15        15        16        15        14        15        12        18        14        14 
dram[8]:        16        24        16        16        20        20        16        20        12        20        20        20        16        12        12        12 
dram[9]:        14        21        14        18        14        17        15        15        16        15        14        15        14        18        11        11 
dram[10]:        24        16        24        14        20        24        16        20        12        20        20        20        20        16        12        12 
dram[11]:        17        14        21        14        12        21        15        15        16        17        14        15        12        18        10        10 
dram[12]:        16        24        24        16        20        20        16        20        12        20        20        20        16        13        16        12 
dram[13]:        14        14        21        14        12        17        15        15        16        15        14        15        14        18        11        11 
dram[14]:        24        24        12        16        20        20        16        20        16        20        20        20        12        16        16        12 
dram[15]:        14        21        14        14        14        17        15        15        16        15        15        15        12        18        11        11 
dram[16]:        20        20        16        16        20        20        16        20        12        20        20        20        16        16        16        12 
dram[17]:        11        11        14        14        14        17        15        15        16        15        14        15        14        18        11        11 
dram[18]:        24        24        12        12        20        20        16        20        12        20        20        20        12        12        12        12 
dram[19]:         9        21        12        18        12        15        15        15        16        15        14        15        14        18        10        11 
dram[20]:        16        24        20        12        20        20        16        20        16        20        20        20        16        12        12        12 
dram[21]:        14        21        21        14        14        15        15        15        16        17        14        15        14        18        14        14 
dram[22]:        12        16        16        16        20        24        16        20        16        20        20        20        16        16        15        16 
dram[23]:        11        14        18        14        12        18        15        15        16        15        14        15        11        18        11        11 
dram[24]:        12        16        24        12        20        20        16        20        16        20        20        20        20        16        16        12 
dram[25]:        14        14        21        12        14        21        15        15        16        15        14        15        15        18        14        14 
dram[26]:        16        16        16        16        20        24        16        20        12        20        20        20        16        16        16        12 
dram[27]:        14        14        14        14        21        21        15        15        16        15        15        15        14        18        11        14 
dram[28]:        12        12        24        20        20        20        16        20        16        20        20        20        16        12        12        12 
dram[29]:        14        14        21        18        14        15        15        15        16        15        14        15        14        18        14        14 
dram[30]:        16        16        16        12        20        20        16        20        20        20        20        20        12        12        12        12 
dram[31]:        14        10        14        12        14        15        15        15        16        16        14        15        11        18        14        11 
maximum service time to same row:
dram[0]:     19755     14030     19151     16306     21445     13220     10449      5908      6221      6253      7721      7710     12757     13297     16676     16684 
dram[1]:     19318     13025     18621     12189      7634      8283      5948      5967      6269      6321      6848      6902     11390     12048     15536     15529 
dram[2]:     20555     14323     19788     19722     12918     12468      7450      5908      6221      6253      7721      7710     12757     13297     16556     16549 
dram[3]:     19347     13101     13543     15491      7606      8162      5948      6086      6269      6321      6848      6902     11390     12048     15541     15496 
dram[4]:     20507     13861     13804     17348     10361     11839      5854     10380      6221      6253      7721      7710     12757     13297     16609     16621 
dram[5]:     19994     12936     13652     11220      7404      8813      7815      5967      6269      6321      6848      6902     11390     12048     15591     15585 
dram[6]:     20725     14090     14345     17784     10634     11630      7886     15061      6221      6253      7721      7710     12757     13297     16566     16537 
dram[7]:     19961     13182     10799     16888      7285      8346      5948      5967      6269      6321      6848      6902     11390     12048     15476     15452 
dram[8]:     20671     13737     16917     18431     12247      9959     12877      5908      6221      6253      7721      7710     12757     13297     16576     16558 
dram[9]:     19604     12925     13251     14660      7345      8517      5948      5967      6269      6321      6848      6902     11390     12048     15426     15422 
dram[10]:     20475     13038     13612     18845     14803     10784      5854      5908      6221      6253      7721      7710     12757     13297     16470     16458 
dram[11]:     19158     12395     15763     16409      7094      9048      6105      5967      6269      6321      6848      7524     11390     12048     15446     15440 
dram[12]:     20876     13560     19338     16828      8354     11712      7684      5908      6221      6253      7721      7710     12757     13297     16545     16536 
dram[13]:     19225     12234     15169     15282      7116      8922      6524      5967      6269      6321      6848      6902     11390     12048     15430     15425 
dram[14]:     20779     13191     14559     18302     10679     13355     10895      5908      6221      6253      7721      7710     12757     13297     16574     16554 
dram[15]:     19491     12511     12027     16207      6835     10339      5948      5967      6269      6321      6848      6902     11390     12048     15852     15895 
dram[16]:     20748     12580     13308     15427     11557     10103     12169     11231      6221      6253      7721      7710     12757     13297     16545     16530 
dram[17]:     19014     12656     14037     15412      6916      8426      5948      6293      6269      6321      6848      6902     11390     12048     15421     15404 
dram[18]:     20222     13576     16899     19987     11344     12514      5854      5908      6221      6253      7721      7710     12757     13297     16802     16838 
dram[19]:     19526     13327     13528     17981      6184      8554      7406      7800      6269      6321      6848      6979     11390     12048     15707     16176 
dram[20]:     20190     14712     19112     14812      9390     13912      5854      5908      6221      6253      7721      7710     12757     13297     16637     16625 
dram[21]:     18717     13077     14359     16353      8151      8590      5948      5967      6269      6321      7463      7041     11390     12048     15429     15417 
dram[22]:     20221     14267     18214     17279     12894     16539      5854      5908      6221      6253      7721      7710     12757     13297     16604     16597 
dram[23]:     18742     13109     13087     16478      5825      7922      9926      5967      6269      6321      7369      6902     11390     12048     15382     15372 
dram[24]:     20234     14624     16557     18071     15739     12778      5854      8214      6221      6253      7721      7710     12757     13297     16642     16644 
dram[25]:     18451     12775     13083     16047      6260      7907      8249      6341      6269      6321      6868      6902     11390     12048     15446     15434 
dram[26]:     19944     14739     13880     18062     15617     12625      6118      9826      6221      6253      7721      7710     12757     13297     16654     16644 
dram[27]:     18675     13058     10271     13867     10446      8235      5948      7004      6269      6321      6848      6902     11390     12048     15462     15450 
dram[28]:     20058     14608     15657     19394     14633     14190     15497      5908      6221      6253      7721      7710     12757     13297     16665     16666 
dram[29]:     19026     13401     13693     17000      6673      7946      5948      5967      6269      6321      7788      6902     11390     12048     15521     15497 
dram[30]:     20357     14708     18002     17801     16424     13981      5854      5908      6221      6253      7721      7710     12757     13297     16524     16696 
dram[31]:     18524     12752     15177     20226      6459      8369      6277      5967      6269      6321      6848      6902     11390     12048     15521     15631 
average row accesses per activate:
dram[0]:  3.689286  3.714815  3.956897  3.886956  3.960784  3.927481  3.154589  3.069444  3.053097  2.939086  3.030252  2.983305  3.171053  3.323944  3.540943  3.673684 
dram[1]:  3.216216  3.342857  3.475610  3.363636  3.451263  3.381944  2.807059  2.803204  2.667797  2.752613  2.737458  2.733558  2.809174  2.961014  3.127962  3.221106 
dram[2]:  3.718411  3.549153  3.750000  3.672065  3.868726  3.821561  3.104513  3.078704  2.891122  3.063717  2.957096  3.003361  3.108007  3.124294  3.594527  3.569620 
dram[3]:  3.433099  3.651515  3.441406  3.584677  3.521583  3.319865  2.960688  2.973301  2.737847  2.855596  2.839100  2.736577  2.917466  2.943249  3.300752  3.214815 
dram[4]:  3.735714  3.768382  3.667954  3.740891  3.775362  3.883019  3.094340  3.006742  2.883139  2.938879  3.003345  3.013559  3.212644  3.250493  3.751938  3.655353 
dram[5]:  3.325175  3.593156  3.581967  3.477912  3.500000  3.354949  2.805104  2.854167  2.706186  2.730570  2.750842  2.750422  2.816327  2.886320  3.104762  3.442359 
dram[6]:  3.921642  3.590106  3.813008  3.901709  3.934866  3.917293  3.139423  3.208633  2.895973  2.972556  2.920325  2.955298  3.241313  3.238281  3.761155  3.779891 
dram[7]:  3.698473  3.434629  3.573840  3.463710  3.355872  3.571956  2.914842  2.933014  2.736568  2.772329  2.763025  2.784615  2.835821  2.858490  3.435696  3.336787 
dram[8]:  3.860806  3.894737  4.021097  4.096070  4.042146  3.808664  3.087471  3.099768  2.894472  2.986231  2.877221  3.013491  3.251938  3.296223  3.884718  3.910614 
dram[9]:  3.585185  3.632576  3.536585  3.726496  3.507143  3.349153  2.893976  2.715556  2.701544  2.726804  2.871252  2.782906  2.896030  2.972710  3.451444  3.357327 
dram[10]:  3.645985  3.750916  3.825000  3.870833  3.746324  3.802920  3.083135  3.216346  2.963856  2.998270  2.955592  3.049828  3.307540  3.320000  3.567164  3.618182 
dram[11]:  3.405018  3.349091  3.333333  3.540084  3.420290  3.412186  2.854067  2.857809  2.746087  2.842011  2.704433  2.770017  2.916988  2.998016  3.248120  3.300518 
dram[12]:  3.757143  3.876923  4.000000  3.860759  3.906716  3.808118  3.129187  3.041190  2.953846  2.977663  2.884800  3.046472  3.211832  3.318458  3.819149  3.684073 
dram[13]:  3.530686  3.376760  3.498008  3.669456  3.394464  3.482517  2.834112  2.772522  2.674576  2.724138  2.766387  2.775891  2.940270  2.889961  3.213235  3.295918 
dram[14]:  3.977444  3.881919  3.795082  4.016878  3.950570  3.948339  3.119332  3.059908  2.965577  3.024348  2.976860  3.042445  3.123364  3.354125  3.711688  3.818182 
dram[15]:  3.411972  3.479853  3.514286  3.630252  3.464286  3.662963  2.749430  2.813364  2.623333  2.778947  2.768581  2.815199  2.721519  2.931907  3.176471  3.183168 
dram[16]:  3.830935  3.651246  3.840816  3.887500  3.689046  4.019157  3.176755  3.206731  2.972414  3.015625  3.057725  2.962046  3.237452  3.300797  3.614796  3.835165 
dram[17]:  3.468750  3.407534  3.579365  3.586345  3.406143  3.366667  2.820930  2.859123  2.779541  2.760000  2.724080  2.742905  2.846729  2.847170  3.424479  3.465425 
dram[18]:  3.658363  3.650735  3.653226  3.726141  3.694245  3.687050  3.006912  3.134118  2.908938  3.034843  2.963636  2.906301  3.195817  3.290837  3.726562  3.615183 
dram[19]:  3.479705  3.473684  3.481328  3.572034  3.460145  3.662921  2.776498  2.746637  2.687180  2.837500  2.773809  2.808950  2.970588  2.964144  3.264631  3.490358 
dram[20]:  3.803704  3.659420  3.838174  3.710204  3.838951  3.881679  3.104762  3.027273  2.895798  3.081416  2.944171  3.056507  3.222437  3.273453  3.680412  3.735135 
dram[21]:  3.460993  3.285223  3.678112  4.095238  3.407801  3.487365  2.814118  2.840278  2.723661  2.901460  2.843750  2.859895  2.882129  2.972111  3.260546  3.333333 
dram[22]:  3.615942  3.804598  3.995327  4.037383  3.873016  4.016260  3.080378  3.183771  3.029877  3.114695  2.983305  3.086655  3.180422  3.313765  3.652174  3.881216 
dram[23]:  3.444444  3.567669  3.687764  3.699571  3.426056  3.489437  2.809302  2.839081  2.764085  2.802120  2.749158  2.795181  2.903101  3.055441  3.547426  3.563889 
dram[24]:  3.623693  3.671480  3.911392  3.871369  3.883459  3.880597  3.178049  3.116279  3.001739  3.019097  2.965404  3.079310  3.156900  3.179389  3.565432  3.579487 
dram[25]:  3.369963  3.355556  3.446721  3.826484  3.452899  3.561338  2.753456  2.858140  2.691781  2.766551  2.853873  2.801709  2.788497  2.837121  3.218905  3.320955 
dram[26]:  4.026923  3.835878  3.858921  3.863248  3.984733  3.866171  3.072600  3.102088  2.994783  2.929174  2.968281  3.011725  3.234043  3.286282  3.869333  3.901408 
dram[27]:  3.485401  3.446887  3.588235  3.921659  3.478417  3.469751  2.748284  2.795455  2.748252  2.749135  2.818024  2.823834  2.844990  3.021956  3.303030  3.403183 
dram[28]:  3.744681  3.918288  3.879167  3.987124  3.867647  4.297959  3.084706  3.230024  2.991304  3.012111  3.100346  3.025381  3.129214  3.299401  3.582090  3.889197 
dram[29]:  3.721805  3.740310  3.804255  3.933628  3.540351  3.365188  2.861176  2.784580  2.709622  2.826476  2.817241  2.725458  2.870968  2.939453  3.518617  3.626741 
dram[30]:  3.679715  3.843284  3.840164  3.880165  4.038314  3.881919  2.959091  3.104167  2.889816  3.020906  2.983361  3.142857  3.247082  3.281437  3.585608  3.625974 
dram[31]:  3.475177  3.397924  3.754237  3.748936  3.473498  3.580882  2.917275  2.843678  2.732639  2.814159  2.726368  2.880911  2.899431  2.875240  3.411311  3.253769 
average row locality = 670124/210458 = 3.184122
number of total memory accesses made:
dram[0]:         0         0         0         0         0         0         0         0         0         0         0         0         0         0         0         0 
dram[1]:         0         0         0         0         0         0         0         0         0         0         0         0         0         0         0         0 
dram[2]:         0         0         0         0         0         0         0         0         0         0         0         0         0         0         0         0 
dram[3]:         0         0         0         0         0         0         0         0         0         0         0         0         0         0         0         0 
dram[4]:         0         0         0         0         0         0         0         0         0         0         0         0         0         0         0         0 
dram[5]:         0         0         0         0         0         0         0         0         0         0         0         0         0         0         0         0 
dram[6]:         0         0         0         0         0         0         0         0         0         0         0         0         0         0         0         0 
dram[7]:         0         0         0         0         0         0         0         0         0         0         0         0         0         0         0         0 
dram[8]:         0         0         0         0         0         0         0         0         0         0         0         0         0         0         0         0 
dram[9]:         0         0         0         0         0         0         0         0         0         0         0         0         0         0         0         0 
[...]

Dual Bus Interface Util: 
issued_total_row = 13078 
issued_total_col = 34741 
Row_Bus_Util =  0.229209 
CoL_Bus_Util = 0.608882 
Either_Row_CoL_Bus_Util = 0.692536 
Issued_on_Two_Bus_Simul_Util = 0.145556 
issued_two_Eff = 0.210179 
queue_avg = 46.749775 


dram_util_bins: 0 0 0 0 0 0 0 0 0 0
dram_eff_bins: 0 0 0 0 0 0 0 0 0 0
mrqq: max=64 avg=46.7498
Memory Partition 28: 
Cache L2_bank_056:

Cache L2_bank_057:

In Dram Latency Queue (total = 172): 
DRAM[28]: 16 bks, busW=16 BL=2 CL=12, tRRD=3 tCCD=1, tRCD=12 tRAS=28 tRP=12 tRC=40
n_cmd=57057 n_nop=16095 n_act=6485 n_pre=6472 n_ref_event=0 n_req=21946 n_rd=16780 n_rd_L2_A=0 n_write=0 n_wr_bk=19612 bw_util=0.6378
n_activity=52736 dram_eff=0.6901
bk0: 924a 38943i bk1: 896a 41390i bk2: 784a 43645i bk3: 788a 44392i bk4: 792a 42128i bk5: 784a 42921i bk6: 904a 33955i bk7: 920a 34117i bk8: 1216a 23714i bk9: 1224a 22996i bk10: 1280a 21475i bk11: 1280a 20956i bk12: 1280a 24354i bk13: 1280a 25657i bk14: 1224a 32334i bk15: 1204a 33914i 

------------------------------------------------------------------------

Row_Buffer_Locality = 0.703546
Row_Buffer_Locality_read = 0.817922
Row_Buffer_Locality_write = 0.326991
Bank_Level_Parallism = 7.757146
Bank_Level_Parallism_Col = 5.176692
Bank_Level_Parallism_Ready = 2.007007
write_to_read_ratio_blp_rw_average = 0.523575
GrpLevelPara = 3.254637 

BW Util details:
bwutil = 0.637818 
total_CMD = 57057 
util_bw = 36392 
Wasted_Col = 15620 
Wasted_Row = 571 
Idle = 4474 

BW Util Bottlenecks: 
RCDc_limit = 13146 
RCDWRc_limit = 10164 
WTRc_limit = 10883 
RTWc_limit = 38389 
CCDLc_limit = 12251 
rwq = 0 
CCDLc_limit_alone = 8083 
WTRc_limit_alone = 9622 
RTWc_limit_alone = 35482 

Commands details: 
total_CMD = 57057 
n_nop = 16095 
Read = 16780 
Write = 0 
L2_Alloc = 0 
L2_WB = 19612 
n_act = 6485 
n_pre = 6472 
n_ref = 0 
n_req = 21946 
total_req = 36392 

Dual Bus Interface Util: 
issued_total_row = 12957 
issued_total_col = 36392 
Row_Bus_Util =  0.227089 
CoL_Bus_Util = 0.637818 
Either_Row_CoL_Bus_Util = 0.717914 
Issued_on_Two_Bus_Simul_Util = 0.146993 
issued_two_Eff = 0.204751 
queue_avg = 51.178787 


dram_util_bins: 0 0 0 0 0 0 0 0 0 0
dram_eff_bins: 0 0 0 0 0 0 0 0 0 0
mrqq: max=64 avg=51.1788
Memory Partition 29: 
Cache L2_bank_058:

Cache L2_bank_059:

In Dram Latency Queue (total = 148): 
DRAM[29]: 16 bks, busW=16 BL=2 CL=12, tRRD=3 tCCD=1, tRCD=12 tRAS=28 tRP=12 tRC=40
n_cmd=57057 n_nop=17228 n_act=6526 n_pre=6510 n_ref_event=0 n_req=20277 n_rd=15088 n_rd_L2_A=0 n_write=0 n_wr_bk=19927 bw_util=0.6137
n_activity=52192 dram_eff=0.6709
bk0: 854a 40714i bk1: 847a 41513i bk2: 749a 43262i bk3: 749a 44338i bk4: 749a 42595i bk5: 717a 41259i bk6: 805a 33651i bk7: 812a 32931i bk8: 1064a 23828i bk9: 1071a 22911i bk10: 1120a 20489i bk11: 1120a 19388i bk12: 1120a 23371i bk13: 1120a 24903i bk14: 1099a 32425i bk15: 1092a 33583i 

------------------------------------------------------------------------

Row_Buffer_Locality = 0.677762
Row_Buffer_Locality_read = 0.801710
Row_Buffer_Locality_write = 0.315310
Bank_Level_Parallism = 7.941077
Bank_Level_Parallism_Col = 5.324720
Bank_Level_Parallism_Ready = 2.043324
write_to_read_ratio_blp_rw_average = 0.542254
GrpLevelPara = 3.254652 

BW Util details:
bwutil = 0.613685 
total_CMD = 57057 
util_bw = 35015 
Wasted_Col = 15995 
Wasted_Row = 871 
Idle = 5176 

BW Util Bottlenecks: 
RCDc_limit = 13021 
RCDWRc_limit = 11174 
WTRc_limit = 12102 
RTWc_limit = 39613 
CCDLc_limit = 12631 
rwq = 0 
CCDLc_limit_alone = 8120 
WTRc_limit_alone = 10637 
RTWc_limit_alone = 36567 

Commands details: 
total_CMD = 57057 
n_nop = 17228 
Read = 15088 
Write = 0 
L2_Alloc = 0 
L2_WB = 19927 
n_act = 6526 
n_pre = 6510 
n_ref = 0 
n_req = 20277 
total_req = 35015 

Dual Bus Interface Util: 
issued_total_row = 13036 
issued_total_col = 35015 
Row_Bus_Util =  0.228473 
CoL_Bus_Util = 0.613685 
Either_Row_CoL_Bus_Util = 0.698056 
Issued_on_Two_Bus_Simul_Util = 0.144102 
issued_two_Eff = 0.206432 
queue_avg = 48.440262 


dram_util_bins: 0 0 0 0 0 0 0 0 0 0
dram_eff_bins: 0 0 0 0 0 0 0 0 0 0
mrqq: max=64 avg=48.4403
Memory Partition 30: 
Cache L2_bank_060:

Cache L2_bank_061:

In Dram Latency Queue (total = 176): 
DRAM[30]: 16 bks, busW=16 BL=2 CL=12, tRRD=3 tCCD=1, tRCD=12 tRAS=28 tRP=12 tRC=40
n_cmd=57057 n_nop=15990 n_act=6581 n_pre=6566 n_ref_event=0 n_req=21947 n_rd=16796 n_rd_L2_A=0 n_write=0 n_wr_bk=19530 bw_util=0.6367
n_activity=52711 dram_eff=0.6892
bk0: 912a 40294i bk1: 904a 40876i bk2: 792a 43892i bk3: 792a 43888i bk4: 792a 43339i bk5: 784a 43350i bk6: 896a 33976i bk7: 928a 33217i bk8: 1216a 23315i bk9: 1224a 23151i bk10: 1280a 20983i bk11: 1280a 21117i bk12: 1280a 25291i bk13: 1280a 25435i bk14: 1232a 32472i bk15: 1204a 32263i 

------------------------------------------------------------------------

Row_Buffer_Locality = 0.699173
Row_Buffer_Locality_read = 0.810323
Row_Buffer_Locality_write = 0.332088
Bank_Level_Parallism = 7.758697
Bank_Level_Parallism_Col = 5.167007
Bank_Level_Parallism_Ready = 2.008176
write_to_read_ratio_blp_rw_average = 0.518596
GrpLevelPara = 3.264968 

BW Util details:
bwutil = 0.636662 
total_CMD = 57057 
util_bw = 36326 
Wasted_Col = 15647 
Wasted_Row = 604 
Idle = 4480 

BW Util Bottlenecks: 
RCDc_limit = 13688 
RCDWRc_limit = 10358 
WTRc_limit = 12375 
RTWc_limit = 37604 
CCDLc_limit = 12556 
rwq = 0 
CCDLc_limit_alone = 8096 
WTRc_limit_alone = 10859 
RTWc_limit_alone = 34660 

Commands details: 
total_CMD = 57057 
n_nop = 15990 
Read = 16796 
Write = 0 
L2_Alloc = 0 
L2_WB = 19530 
n_act = 6581 
n_pre = 6566 
n_ref = 0 
n_req = 21947 
total_req = 36326 

Dual Bus Interface Util: 
issued_total_row = 13147 
issued_total_col = 36326 
Row_Bus_Util =  0.230419 
CoL_Bus_Util = 0.636662 
Either_Row_CoL_Bus_Util = 0.719754 
Issued_on_Two_Bus_Simul_Util = 0.147326 
issued_two_Eff = 0.204690 
queue_avg = 52.094677 


dram_util_bins: 0 0 0 0 0 0 0 0 0 0
dram_eff_bins: 0 0 0 0 0 0 0 0 0 0
mrqq: max=64 avg=52.0947
Memory Partition 31: 
Cache L2_bank_062:

Cache L2_bank_063:

In Dram Latency Queue (total = 138): 
DRAM[31]: 16 bks, busW=16 BL=2 CL=12, tRRD=3 tCCD=1, tRCD=12 tRAS=28 tRP=12 tRC=40
n_cmd=57057 n_nop=17236 n_act=6591 n_pre=6576 n_ref_event=0 n_req=20287 n_rd=14996 n_rd_L2_A=0 n_write=0 n_wr_bk=20162 bw_util=0.6162
n_activity=52196 dram_eff=0.6736
bk0: 846a 39890i bk1: 849a 40107i bk2: 739a 44136i bk3: 729a 44171i bk4: 719a 42358i bk5: 705a 42276i bk6: 791a 34577i bk7: 819a 32742i bk8: 1064a 23856i bk9: 1071a 22812i bk10: 1120a 20982i bk11: 1120a 20911i bk12: 1120a 24051i bk13: 1120a 25059i bk14: 1099a 32150i bk15: 1085a 33274i 

------------------------------------------------------------------------

Row_Buffer_Locality = 0.673985
Row_Buffer_Locality_read = 0.797680
Row_Buffer_Locality_write = 0.318652
Bank_Level_Parallism = 7.914782
Bank_Level_Parallism_Col = 5.267842
Bank_Level_Parallism_Ready = 2.028585
write_to_read_ratio_blp_rw_average = 0.556995
GrpLevelPara = 3.246475 

BW Util details:
bwutil = 0.616191 
total_CMD = 57057 
util_bw = 35158 
Wasted_Col = 15743 
Wasted_Row = 872 
Idle = 5284 

BW Util Bottlenecks: 
RCDc_limit = 13271 
RCDWRc_limit = 10758 
WTRc_limit = 11502 
RTWc_limit = 39874 
CCDLc_limit = 12970 
rwq = 0 
CCDLc_limit_alone = 8363 
WTRc_limit_alone = 10120 
RTWc_limit_alone = 36649 

Commands details: 
total_CMD = 57057 
n_nop = 17236 
Read = 14996 
Write = 0 
L2_Alloc = 0 
L2_WB = 20162 
n_act = 6591 
n_pre = 6576 
n_ref = 0 
n_req = 20287 
total_req = 35158 

Dual Bus Interface Util: 
issued_total_row = 13167 
issued_total_col = 35158 
Row_Bus_Util =  0.230769 
CoL_Bus_Util = 0.616191 
Either_Row_CoL_Bus_Util = 0.697916 
Issued_on_Two_Bus_Simul_Util = 0.149044 
issued_two_Eff = 0.213556 
queue_avg = 47.297176 


dram_util_bins: 0 0 0 0 0 0 0 0 0 0
dram_eff_bins: 0 0 0 0 0 0 0 0 0 0
mrqq: max=64 avg=47.2972

========= L2 cache stats =========
L2_cache_bank[0]: Access = 21866, Miss = 21866, Miss_rate = 1.000, Pending_hits = 0, Reservation_fails = 0
L2_cache_bank[1]: Access = 21506, Miss = 21506, Miss_rate = 1.000, Pending_hits = 0, Reservation_fails = 7
L2_cache_bank[2]: Access = 20736, Miss = 20736, Miss_rate = 1.000, Pending_hits = 0, Reservation_fails = 0
L2_cache_bank[3]: Access = 20628, Miss = 20628, Miss_rate = 1.000, Pending_hits = 0, Reservation_fails = 488
L2_cache_bank[4]: Access = 21686, Miss = 21686, Miss_rate = 1.000, Pending_hits = 0, Reservation_fails = 0
L2_cache_bank[5]: Access = 21664, Miss = 21664, Miss_rate = 1.000, Pending_hits = 0, Reservation_fails = 612
L2_cache_bank[6]: Access = 20752, Miss = 20752, Miss_rate = 1.000, Pending_hits = 0, Reservation_fails = 0
L2_cache_bank[7]: Access = 20858, Miss = 20858, Miss_rate = 1.000, Pending_hits = 0, Reservation_fails = 1
L2_cache_bank[8]: Access = 21867, Miss = 21867, Miss_rate = 1.000, Pending_hits = 0, Reservation_fails = 490
L2_cache_bank[9]: Access = 21606, Miss = 21606, Miss_rate = 1.000, Pending_hits = 0, Reservation_fails = 0
L2_cache_bank[10]: Access = 20771, Miss = 20771, Miss_rate = 1.000, Pending_hits = 0, Reservation_fails = 2
L2_cache_bank[11]: Access = 20817, Miss = 20817, Miss_rate = 1.000, Pending_hits = 0, Reservation_fails = 15
L2_cache_bank[12]: Access = 21876, Miss = 21876, Miss_rate = 1.000, Pending_hits = 0, Reservation_fails = 0
L2_cache_bank[13]: Access = 21613, Miss = 21613, Miss_rate = 1.000, Pending_hits = 0, Reservation_fails = 820
L2_cache_bank[14]: Access = 20961, Miss = 20961, Miss_rate = 1.000, Pending_hits = 0, Reservation_fails = 167
L2_cache_bank[15]: Access = 20853, Miss = 20853, Miss_rate = 1.000, Pending_hits = 0, Reservation_fails = 1
L2_cache_bank[16]: Access = 21879, Miss = 21879, Miss_rate = 1.000, Pending_hits = 0, Reservation_fails = 0
L2_cache_bank[17]: Access = 21671, Miss = 21671, Miss_rate = 1.000, Pending_hits = 0, Reservation_fails = 497
L2_cache_bank[18]: Access = 20945, Miss = 20945, Miss_rate = 1.000, Pending_hits = 0, Reservation_fails = 82
L2_cache_bank[19]: Access = 20902, Miss = 20902, Miss_rate = 1.000, Pending_hits = 0, Reservation_fails = 1
L2_cache_bank[20]: Access = 21755, Miss = 21755, Miss_rate = 1.000, Pending_hits = 0, Reservation_fails = 283
L2_cache_bank[21]: Access = 21736, Miss = 21736, Miss_rate = 1.000, Pending_hits = 0, Reservation_fails = 213
L2_cache_bank[22]: Access = 20872, Miss = 20872, Miss_rate = 1.000, Pending_hits = 0, Reservation_fails = 0
L2_cache_bank[23]: Access = 20736, Miss = 20736, Miss_rate = 1.000, Pending_hits = 0, Reservation_fails = 349
L2_cache_bank[24]: Access = 21957, Miss = 21957, Miss_rate = 1.000, Pending_hits = 0, Reservation_fails = 435
L2_cache_bank[25]: Access = 21554, Miss = 21554, Miss_rate = 1.000, Pending_hits = 0, Reservation_fails = 21
L2_cache_bank[26]: Access = 21091, Miss = 21091, Miss_rate = 1.000, Pending_hits = 0, Reservation_fails = 390
L2_cache_bank[27]: Access = 20746, Miss = 20746, Miss_rate = 1.000, Pending_hits = 0, Reservation_fails = 17
L2_cache_bank[28]: Access = 21934, Miss = 21934, Miss_rate = 1.000, Pending_hits = 0, Reservation_fails = 29
L2_cache_bank[29]: Access = 21854, Miss = 21854, Miss_rate = 1.000, Pending_hits = 0, Reservation_fails = 702
L2_cache_bank[30]: Access = 20927, Miss = 20927, Miss_rate = 1.000, Pending_hits = 0, Reservation_fails = 0
L2_cache_bank[31]: Access = 20701, Miss = 20701, Miss_rate = 1.000, Pending_hits = 0, Reservation_fails = 1
L2_cache_bank[32]: Access = 21812, Miss = 21812, Miss_rate = 1.000, Pending_hits = 0, Reservation_fails = 1042
L2_cache_bank[33]: Access = 21461, Miss = 21461, Miss_rate = 1.000, Pending_hits = 0, Reservation_fails = 0
L2_cache_bank[34]: Access = 20984, Miss = 20984, Miss_rate = 1.000, Pending_hits = 0, Reservation_fails = 0
L2_cache_bank[35]: Access = 20774, Miss = 20774, Miss_rate = 1.000, Pending_hits = 0, Reservation_fails = 1
L2_cache_bank[36]: Access = 21814, Miss = 21814, Miss_rate = 1.000, Pending_hits = 0, Reservation_fails = 8
L2_cache_bank[37]: Access = 21489, Miss = 21489, Miss_rate = 1.000, Pending_hits = 0, Reservation_fails = 0
L2_cache_bank[38]: Access = 20677, Miss = 20677, Miss_rate = 1.000, Pending_hits = 0, Reservation_fails = 0
L2_cache_bank[39]: Access = 20526, Miss = 20526, Miss_rate = 1.000, Pending_hits = 0, Reservation_fails = 1
L2_cache_bank[40]: Access = 21507, Miss = 21507, Miss_rate = 1.000, Pending_hits = 0, Reservation_fails = 1
L2_cache_bank[41]: Access = 21367, Miss = 21367, Miss_rate = 1.000, Pending_hits = 0, Reservation_fails = 0
L2_cache_bank[42]: Access = 20811, Miss = 20811, Miss_rate = 1.000, Pending_hits = 0, Reservation_fails = 0
L2_cache_bank[43]: Access = 20731, Miss = 20731, Miss_rate = 1.000, Pending_hits = 0, Reservation_fails = 1
L2_cache_bank[44]: Access = 21214, Miss = 21214, Miss_rate = 1.000, Pending_hits = 0, Reservation_fails = 0
L2_cache_bank[45]: Access = 21316, Miss = 21316, Miss_rate = 1.000, Pending_hits = 0, Reservation_fails = 35
L2_cache_bank[46]: Access = 20709, Miss = 20709, Miss_rate = 1.000, Pending_hits = 0, Reservation_fails = 0
L2_cache_bank[47]: Access = 20756, Miss = 20756, Miss_rate = 1.000, Pending_hits = 0, Reservation_fails = 5
L2_cache_bank[48]: Access = 21757, Miss = 21757, Miss_rate = 1.000, Pending_hits = 0, Reservation_fails = 0
L2_cache_bank[49]: Access = 21761, Miss = 21761, Miss_rate = 1.000, Pending_hits = 0, Reservation_fails = 7
L2_cache_bank[50]: Access = 20550, Miss = 20550, Miss_rate = 1.000, Pending_hits = 0, Reservation_fails = 0
L2_cache_bank[51]: Access = 20550, Miss = 20550, Miss_rate = 1.000, Pending_hits = 0, Reservation_fails = 1
L2_cache_bank[52]: Access = 21681, Miss = 21681, Miss_rate = 1.000, Pending_hits = 0, Reservation_fails = 0
L2_cache_bank[53]: Access = 21520, Miss = 21520, Miss_rate = 1.000, Pending_hits = 0, Reservation_fails = 0
L2_cache_bank[54]: Access = 20749, Miss = 20749, Miss_rate = 1.000, Pending_hits = 0, Reservation_fails = 0
L2_cache_bank[55]: Access = 20811, Miss = 20811, Miss_rate = 1.000, Pending_hits = 0, Reservation_fails = 1
L2_cache_bank[56]: Access = 21621, Miss = 21621, Miss_rate = 1.000, Pending_hits = 0, Reservation_fails = 141
L2_cache_bank[57]: Access = 21661, Miss = 21661, Miss_rate = 1.000, Pending_hits = 0, Reservation_fails = 0
L2_cache_bank[58]: Access = 20850, Miss = 20850, Miss_rate = 1.000, Pending_hits = 0, Reservation_fails = 0
L2_cache_bank[59]: Access = 21029, Miss = 21029, Miss_rate = 1.000, Pending_hits = 0, Reservation_fails = 1
L2_cache_bank[60]: Access = 21877, Miss = 21877, Miss_rate = 1.000, Pending_hits = 0, Reservation_fails = 0
L2_cache_bank[61]: Access = 21796, Miss = 21796, Miss_rate = 1.000, Pending_hits = 0, Reservation_fails = 0
L2_cache_bank[62]: Access = 20841, Miss = 20841, Miss_rate = 1.000, Pending_hits = 0, Reservation_fails = 0
L2_cache_bank[63]: Access = 20972, Miss = 20972, Miss_rate = 1.000, Pending_hits = 0, Reservation_fails = 1
L2_total_cache_accesses = 1359294
L2_total_cache_misses = 1359294
L2_total_cache_miss_rate = 1.0000
L2_total_cache_pending_hits = 0
L2_total_cache_reservation_fails = 6869
L2_total_cache_breakdown:
	L2_cache_stats_breakdown[GLOBAL_ACC_R][HIT] = 0
	L2_cache_stats_breakdown[GLOBAL_ACC_R][HIT_RESERVED] = 0
	L2_cache_stats_breakdown[GLOBAL_ACC_R][MISS] = 136671
	L2_cache_stats_breakdown[GLOBAL_ACC_R][RESERVATION_FAIL] = 6869
	L2_cache_stats_breakdown[GLOBAL_ACC_R][SECTOR_MISS] = 375633
	L2_cache_stats_breakdown[LOCAL_ACC_R][HIT] = 0
	L2_cache_stats_breakdown[LOCAL_ACC_R][HIT_RESERVED] = 0
	L2_cache_stats_breakdown[LOCAL_ACC_R][MISS] = 0
	L2_cache_stats_breakdown[LOCAL_ACC_R][RESERVATION_FAIL] = 0
	L2_cache_stats_breakdown[LOCAL_ACC_R][SECTOR_MISS] = 0
	L2_cache_stats_breakdown[CONST_ACC_R][HIT] = 0
	L2_cache_stats_breakdown[CONST_ACC_R][HIT_RESERVED] = 0
	L2_cache_stats_breakdown[CONST_ACC_R][MISS] = 0
	L2_cache_stats_breakdown[CONST_ACC_R][RESERVATION_FAIL] = 0
	L2_cache_stats_breakdown[CONST_ACC_R][SECTOR_MISS] = 0
	L2_cache_stats_breakdown[TEXTURE_ACC_R][HIT] = 0
	L2_cache_stats_breakdown[TEXTURE_ACC_R][HIT_RESERVED] = 0
	L2_cache_stats_breakdown[TEXTURE_ACC_R][MISS] = 0
	L2_cache_stats_breakdown[TEXTURE_ACC_R][RESERVATION_FAIL] = 0
	L2_cache_stats_breakdown[TEXTURE_ACC_R][SECTOR_MISS] = 0
	L2_cache_stats_breakdown[GLOBAL_ACC_W][HIT] = 0
	L2_cache_stats_breakdown[GLOBAL_ACC_W][HIT_RESERVED] = 0
	L2_cache_stats_breakdown[GLOBAL_ACC_W][MISS] = 199889
	L2_cache_stats_breakdown[GLOBAL_ACC_W][RESERVATION_FAIL] = 0
	L2_cache_stats_breakdown[GLOBAL_ACC_W][SECTOR_MISS] = 647101
	L2_cache_stats_breakdown[LOCAL_ACC_W][HIT] = 0
	L2_cache_stats_breakdown[LOCAL_ACC_W][HIT_RESERVED] = 0
	L2_cache_stats_breakdown[LOCAL_ACC_W][MISS] = 0
	L2_cache_stats_breakdown[LOCAL_ACC_W][RESERVATION_FAIL] = 0
	L2_cache_stats_breakdown[LOCAL_ACC_W][SECTOR_MISS] = 0
	L2_cache_stats_breakdown[L1_WRBK_ACC][HIT] = 0
	L2_cache_stats_breakdown[L1_WRBK_ACC][HIT_RESERVED] = 0
	L2_cache_stats_breakdown[L1_WRBK_ACC][MISS] = 0
	L2_cache_stats_breakdown[L1_WRBK_ACC][RESERVATION_FAIL] = 0
	L2_cache_stats_breakdown[L1_WRBK_ACC][SECTOR_MISS] = 0
	L2_cache_stats_breakdown[L2_WRBK_ACC][HIT] = 0
	L2_cache_stats_breakdown[L2_WRBK_ACC][HIT_RESERVED] = 0
	L2_cache_stats_breakdown[L2_WRBK_ACC][MISS] = 0
	L2_cache_stats_breakdown[L2_WRBK_ACC][RESERVATION_FAIL] = 0
	L2_cache_stats_breakdown[L2_WRBK_ACC][SECTOR_MISS] = 0
	L2_cache_stats_breakdown[INST_ACC_R][HIT] = 0
	L2_cache_stats_breakdown[INST_ACC_R][HIT_RESERVED] = 0
	L2_cache_stats_breakdown[INST_ACC_R][MISS] = 0
	L2_cache_stats_breakdown[INST_ACC_R][RESERVATION_FAIL] = 0
	L2_cache_stats_breakdown[INST_ACC_R][SECTOR_MISS] = 0
	L2_cache_stats_breakdown[L1_WR_ALLOC_R][HIT] = 0
	L2_cache_stats_breakdown[L1_WR_ALLOC_R][HIT_RESERVED] = 0
	L2_cache_stats_breakdown[L1_WR_ALLOC_R][MISS] = 0
	L2_cache_stats_breakdown[L1_WR_ALLOC_R][RESERVATION_FAIL] = 0
	L2_cache_stats_breakdown[L1_WR_ALLOC_R][SECTOR_MISS] = 0
	L2_cache_stats_breakdown[L2_WR_ALLOC_R][HIT] = 0
	L2_cache_stats_breakdown[L2_WR_ALLOC_R][HIT_RESERVED] = 0
	L2_cache_stats_breakdown[L2_WR_ALLOC_R][MISS] = 0
	L2_cache_stats_breakdown[L2_WR_ALLOC_R][RESERVATION_FAIL] = 0
	L2_cache_stats_breakdown[L2_WR_ALLOC_R][SECTOR_MISS] = 0
	L2_cache_stats_breakdown[GLOBAL_ACC_R][TOTAL_ACCESS] = 512304
	L2_cache_stats_breakdown[GLOBAL_ACC_W][TOTAL_ACCESS] = 846990
L2_total_cache_reservation_fail_breakdown:
	L2_cache_stats_fail_breakdown[GLOBAL_ACC_R][MSHR_ENRTY_FAIL] = 6869
L2_cache_data_port_util = 0.090
L2_cache_fill_port_util = 0.104

icnt_total_pkts_mem_to_simt=1352900
icnt_total_pkts_simt_to_mem=1416870
LD_mem_lat_dist  0 0 0 0 0 0 0 0 0 0 0 0 0 0 0 0 0 0 0 0 0 0 0 0 0 0 0
ST_mem_lat_dist  0 0 0 0 0 0 0 0 0 0 0 0 0 0 0 0 0 0 0 0 0 0 0 0 0 0 0
----------------------------Interconnect-DETAILS--------------------------------
Req_Network_injected_packets_num = 1416870
Req_Network_cycles = 75987
Req_Network_injected_packets_per_cycle =      18.6462 
Req_Network_conflicts_per_cycle =      52.0642
Req_Network_conflicts_per_cycle_util =      55.8651
Req_Bank_Level_Parallism =      19.4362
Req_Network_in_buffer_full_per_cycle =      53.0183
Req_Network_in_buffer_avg_util =     466.0236
Req_Network_out_buffer_full_per_cycle =       5.6659
Req_Network_out_buffer_avg_util =     227.6862

Reply_Network_injected_packets_num = 1353133
Reply_Network_cycles = 75987
Reply_Network_injected_packets_per_cycle =       17.8074
Reply_Network_conflicts_per_cycle =        5.7546
Reply_Network_conflicts_per_cycle_util =       6.3887
Reply_Bank_Level_Parallism =      19.7666
Reply_Network_in_buffer_full_per_cycle =       0.0000
Reply_Network_in_buffer_avg_util =       3.8945
Reply_Network_out_buffer_full_per_cycle =       0.0000
Reply_Network_out_buffer_avg_util =       0.2226
----------------------------END-of-Interconnect-DETAILS-------------------------


gpgpu_simulation_time = 0 days, 0 hrs, 11 min, 23 sec (683 sec)
gpgpu_simulation_rate = 77470 (inst/sec)
gpgpu_simulation_rate = 111 (cycle/sec)
gpgpu_silicon_slowdown = 10198198x
GPGPU-Sim: *** simulation thread exiting ***
GPGPU-Sim: ** break due to reaching the maximum cycles (or instructions) **
GPGPU-Sim: *** exit detected ***
