

        *** GPGPU-Sim Simulator Version 4.0.0  [build gpgpu-sim_git-commit-ffe0a1a00e984ecce9bf36e17ab94c4de0de8108_modified_0.0] ***


GPGPU-Sim PTX: simulation mode 0 (can change with PTX_SIM_MODE_FUNC environment variable:
               1=functional simulation only, 0=detailed performance simulator)
GPGPU-Sim PTX: overriding embedded ptx with ptx file (PTX_SIM_USE_PTX_FILE is set)
GPGPU-Sim: Configuration options:

-save_embedded_ptx                      0 # saves ptx files embedded in binary as <n>.ptx
-keep                                   0 # keep intermediate files created by GPGPU-Sim when interfacing with external programs
-gpgpu_ptx_save_converted_ptxplus                    0 # Saved converted ptxplus to a file
-gpgpu_occupancy_sm_number                   70 # The SM number to pass to ptxas when getting register usage for computing GPU occupancy. This parameter is required in the config.
-ptx_opcode_latency_int      4,13,4,5,145,21 # Opcode latencies for integers <ADD,MAX,MUL,MAD,DIV,SHFL>Default 1,1,19,25,145,32
-ptx_opcode_latency_fp          4,13,4,5,39 # Opcode latencies for single precision floating points <ADD,MAX,MUL,MAD,DIV>Default 1,1,1,1,30
-ptx_opcode_latency_dp         8,19,8,8,330 # Opcode latencies for double precision floating points <ADD,MAX,MUL,MAD,DIV>Default 8,8,8,8,335
-ptx_opcode_latency_sfu                  100 # Opcode latencies for SFU instructionsDefault 8
-ptx_opcode_latency_tesnor                   64 # Opcode latencies for Tensor instructionsDefault 64
-ptx_opcode_initiation_int          2,2,2,2,8,4 # Opcode initiation intervals for integers <ADD,MAX,MUL,MAD,DIV,SHFL>Default 1,1,4,4,32,4
-ptx_opcode_initiation_fp            2,2,2,2,4 # Opcode initiation intervals for single precision floating points <ADD,MAX,MUL,MAD,DIV>Default 1,1,1,1,5
-ptx_opcode_initiation_dp          4,4,4,4,130 # Opcode initiation intervals for double precision floating points <ADD,MAX,MUL,MAD,DIV>Default 8,8,8,8,130
-ptx_opcode_initiation_sfu                    8 # Opcode initiation intervals for sfu instructionsDefault 8
-ptx_opcode_initiation_tensor                   64 # Opcode initiation intervals for tensor instructionsDefault 64
-cdp_latency         7200,8000,100,12000,1600 # CDP API latency <cudaStreamCreateWithFlags, cudaGetParameterBufferV2_init_perWarp, cudaGetParameterBufferV2_perKernel, cudaLaunchDeviceV2_init_perWarp, cudaLaunchDevicV2_perKernel>Default 7200,8000,100,12000,1600
-network_mode                           2 # Interconnection network mode
-inter_config_file                   mesh # Interconnection network config file
-icnt_in_buffer_limit                  512 # in_buffer_limit
-icnt_out_buffer_limit                  512 # out_buffer_limit
-icnt_subnets                           2 # subnets
-icnt_arbiter_algo                      1 # arbiter_algo
-icnt_verbose                           0 # inct_verbose
-icnt_grant_cycles                      1 # grant_cycles
-gpgpu_ptx_use_cuobjdump                    1 # Use cuobjdump to extract ptx and sass from binaries
-gpgpu_experimental_lib_support                    0 # Try to extract code from cuda libraries [Broken because of unknown cudaGetExportTable]
-checkpoint_option                      0 #  checkpointing flag (0 = no checkpoint)
-checkpoint_kernel                      1 #  checkpointing during execution of which kernel (1- 1st kernel)
-checkpoint_CTA                         0 #  checkpointing after # of CTA (< less than total CTA)
-resume_option                          0 #  resume flag (0 = no resume)
-resume_kernel                          0 #  Resume from which kernel (1= 1st kernel)
-resume_CTA                             0 #  resume from which CTA 
-checkpoint_CTA_t                       0 #  resume from which CTA 
-checkpoint_insn_Y                      0 #  resume from which CTA 
-gpgpu_ptx_convert_to_ptxplus                    0 # Convert SASS (native ISA) to ptxplus and run ptxplus
-gpgpu_ptx_force_max_capability                   70 # Force maximum compute capability
-gpgpu_ptx_inst_debug_to_file                    0 # Dump executed instructions' debug information to file
-gpgpu_ptx_inst_debug_file       inst_debug.txt # Executed instructions' debug output file
-gpgpu_ptx_inst_debug_thread_uid                    1 # Thread UID for executed instructions' debug output
-gpgpu_n_mem_for_l2wb_pcommit                   32 # number of memory modules (e.g. memory controllers) in gpu
-gpgpu_n_sub_partition_per_mchannel_for_l2wb_pcommit                    2 # number of memory subpartition in each memory module
-gpgpu_dl2_bsize_for_l2wb_pcommit                  128 # default 128 bytes
-gpgpu_simd_model                       1 # 1 = post-dominator
-gpgpu_shader_core_pipeline              2048:32 # shader core pipeline config, i.e., {<nthread>:<warpsize>}
-gpgpu_tex_cache:l1  N:4:128:256,L:R:m:N:L,T:512:8,128:2 # per-shader L1 texture cache  (READ-ONLY) config  {<nsets>:<bsize>:<assoc>,<rep>:<wr>:<alloc>:<wr_alloc>,<mshr>:<N>:<merge>,<mq>:<rf>}
-gpgpu_const_cache:l1 N:128:64:8,L:R:f:N:L,S:2:64,4 # per-shader L1 constant memory cache  (READ-ONLY) config  {<nsets>:<bsize>:<assoc>,<rep>:<wr>:<alloc>:<wr_alloc>,<mshr>:<N>:<merge>,<mq>} 
-gpgpu_cache:il1     N:64:128:16,L:R:f:N:L,S:2:48,4 # shader L1 instruction cache config  {<nsets>:<bsize>:<assoc>,<rep>:<wr>:<alloc>:<wr_alloc>,<mshr>:<N>:<merge>,<mq>} 
-gpgpu_cache:dl1     S:1:128:256,L:L:s:N:L,A:256:8,16:0,32 # per-shader L1 data cache config  {<nsets>:<bsize>:<assoc>,<rep>:<wr>:<alloc>:<wr_alloc>,<mshr>:<N>:<merge>,<mq> | none}
-gpgpu_l1_banks                         4 # The number of L1 cache banks
-gpgpu_l1_banks_byte_interleaving                   32 # l1 banks byte interleaving granularity
-gpgpu_l1_banks_hashing_function                    0 # l1 banks hashing function
-gpgpu_l1_latency                      20 # L1 Hit Latency
-gpgpu_smem_latency                    20 # smem Latency
-gpgpu_cache:dl1PrefL1                 none # per-shader L1 data cache config  {<nsets>:<bsize>:<assoc>,<rep>:<wr>:<alloc>:<wr_alloc>,<mshr>:<N>:<merge>,<mq> | none}
-gpgpu_cache:dl1PrefShared                 none # per-shader L1 data cache config  {<nsets>:<bsize>:<assoc>,<rep>:<wr>:<alloc>:<wr_alloc>,<mshr>:<N>:<merge>,<mq> | none}
-gpgpu_gmem_skip_L1D                    0 # global memory access skip L1D cache (implements -Xptxas -dlcm=cg, default=no skip)
-gpgpu_perfect_mem                      0 # enable perfect memory mode (no cache miss)
-n_regfile_gating_group                    4 # group of lanes that should be read/written together)
-gpgpu_clock_gated_reg_file                    0 # enable clock gated reg file for power calculations
-gpgpu_clock_gated_lanes                    0 # enable clock gated lanes for power calculations
-gpgpu_shader_registers                65536 # Number of registers per shader core. Limits number of concurrent CTAs. (default 8192)
-gpgpu_registers_per_block                65536 # Maximum number of registers per CTA. (default 8192)
-gpgpu_ignore_resources_limitation                    0 # gpgpu_ignore_resources_limitation (default 0)
-gpgpu_shader_cta                      32 # Maximum number of concurrent CTAs in shader (default 8)
-gpgpu_num_cta_barriers                   16 # Maximum number of named barriers per CTA (default 16)
-gpgpu_n_clusters                      80 # number of processing clusters
-gpgpu_n_cores_per_cluster                    1 # number of simd cores per cluster
-gpgpu_n_cluster_ejection_buffer_size                   32 # number of packets in ejection buffer
-gpgpu_n_ldst_response_buffer_size                    2 # number of response packets in ld/st unit ejection buffer
-gpgpu_shmem_per_block                65536 # Size of shared memory per thread block or CTA (default 48kB)
-gpgpu_shmem_size                   98304 # Size of shared memory per shader core (default 16kB)
-gpgpu_adaptive_cache_config            536870913 # adaptive_cache_config
-gpgpu_shmem_sizeDefault                98304 # Size of shared memory per shader core (default 16kB)
-gpgpu_shmem_size_PrefL1                16384 # Size of shared memory per shader core (default 16kB)
-gpgpu_shmem_size_PrefShared                16384 # Size of shared memory per shader core (default 16kB)
-gpgpu_shmem_num_banks                   32 # Number of banks in the shared memory in each shader core (default 16)
-gpgpu_shmem_limited_broadcast                    0 # Limit shared memory to do one broadcast per cycle (default on)
-gpgpu_shmem_warp_parts                    1 # Number of portions a warp is divided into for shared memory bank conflict check 
-gpgpu_mem_unit_ports                    1 # The number of memory transactions allowed per core cycle
-gpgpu_shmem_warp_parts                    1 # Number of portions a warp is divided into for shared memory bank conflict check 
-gpgpu_warpdistro_shader                   -1 # Specify which shader core to collect the warp size distribution from
-gpgpu_warp_issue_shader                    0 # Specify which shader core to collect the warp issue distribution from
-gpgpu_local_mem_map                    1 # Mapping from local memory space address to simulated GPU physical address space (default = enabled)
-gpgpu_num_reg_banks                   16 # Number of register banks (default = 8)
-gpgpu_reg_bank_use_warp_id                    0 # Use warp ID in mapping registers to banks (default = off)
-gpgpu_sub_core_model                    1 # Sub Core Volta/Pascal model (default = off)
-gpgpu_enable_specialized_operand_collector                    0 # enable_specialized_operand_collector
-gpgpu_operand_collector_num_units_sp                    4 # number of collector units (default = 4)
-gpgpu_operand_collector_num_units_dp                    0 # number of collector units (default = 0)
-gpgpu_operand_collector_num_units_sfu                    4 # number of collector units (default = 4)
-gpgpu_operand_collector_num_units_int                    0 # number of collector units (default = 0)
-gpgpu_operand_collector_num_units_tensor_core                    4 # number of collector units (default = 4)
-gpgpu_operand_collector_num_units_mem                    2 # number of collector units (default = 2)
-gpgpu_operand_collector_num_units_gen                    8 # number of collector units (default = 0)
-gpgpu_operand_collector_num_in_ports_sp                    1 # number of collector unit in ports (default = 1)
-gpgpu_operand_collector_num_in_ports_dp                    0 # number of collector unit in ports (default = 0)
-gpgpu_operand_collector_num_in_ports_sfu                    1 # number of collector unit in ports (default = 1)
-gpgpu_operand_collector_num_in_ports_int                    0 # number of collector unit in ports (default = 0)
-gpgpu_operand_collector_num_in_ports_tensor_core                    1 # number of collector unit in ports (default = 1)
-gpgpu_operand_collector_num_in_ports_mem                    1 # number of collector unit in ports (default = 1)
-gpgpu_operand_collector_num_in_ports_gen                    8 # number of collector unit in ports (default = 0)
-gpgpu_operand_collector_num_out_ports_sp                    1 # number of collector unit in ports (default = 1)
-gpgpu_operand_collector_num_out_ports_dp                    0 # number of collector unit in ports (default = 0)
-gpgpu_operand_collector_num_out_ports_sfu                    1 # number of collector unit in ports (default = 1)
-gpgpu_operand_collector_num_out_ports_int                    0 # number of collector unit in ports (default = 0)
-gpgpu_operand_collector_num_out_ports_tensor_core                    1 # number of collector unit in ports (default = 1)
-gpgpu_operand_collector_num_out_ports_mem                    1 # number of collector unit in ports (default = 1)
-gpgpu_operand_collector_num_out_ports_gen                    8 # number of collector unit in ports (default = 0)
-gpgpu_coalesce_arch                   60 # Coalescing arch (GT200 = 13, Fermi = 20)
-gpgpu_num_sched_per_core                    4 # Number of warp schedulers per core
-gpgpu_max_insn_issue_per_warp                    1 # Max number of instructions that can be issued per warp in one cycle by scheduler (either 1 or 2)
-gpgpu_dual_issue_diff_exec_units                    1 # should dual issue use two different execution unit resources (Default = 1)
-gpgpu_simt_core_sim_order                    1 # Select the simulation order of cores in a cluster (0=Fix, 1=Round-Robin)
-gpgpu_pipeline_widths 4,4,4,4,4,4,4,4,4,4,8,4,4 # Pipeline widths ID_OC_SP,ID_OC_DP,ID_OC_INT,ID_OC_SFU,ID_OC_MEM,OC_EX_SP,OC_EX_DP,OC_EX_INT,OC_EX_SFU,OC_EX_MEM,EX_WB,ID_OC_TENSOR_CORE,OC_EX_TENSOR_CORE
-gpgpu_tensor_core_avail                    1 # Tensor Core Available (default=0)
-gpgpu_num_sp_units                     4 # Number of SP units (default=1)
-gpgpu_num_dp_units                     4 # Number of DP units (default=0)
-gpgpu_num_int_units                    4 # Number of INT units (default=0)
-gpgpu_num_sfu_units                    4 # Number of SF units (default=1)
-gpgpu_num_tensor_core_units                    4 # Number of tensor_core units (default=1)
-gpgpu_num_mem_units                    1 # Number if ldst units (default=1) WARNING: not hooked up to anything
-gpgpu_scheduler                      gto # Scheduler configuration: < lrr | gto | two_level_active > If two_level_active:<num_active_warps>:<inner_prioritization>:<outer_prioritization>For complete list of prioritization values see shader.h enum scheduler_prioritization_typeDefault: gto
-gpgpu_concurrent_kernel_sm                    0 # Support concurrent kernels on a SM (default = disabled)
-gpgpu_perfect_inst_const_cache                    1 # perfect inst and const cache mode, so all inst and const hits in the cache(default = disabled)
-gpgpu_inst_fetch_throughput                    4 # the number of fetched intruction per warp each cycle
-gpgpu_reg_file_port_throughput                    2 # the number ports of the register file
-specialized_unit_1         0,4,4,4,4,BRA # specialized unit config {<enabled>,<num_units>:<latency>:<initiation>,<ID_OC_SPEC>:<OC_EX_SPEC>,<NAME>}
-specialized_unit_2         0,4,4,4,4,BRA # specialized unit config {<enabled>,<num_units>:<latency>:<initiation>,<ID_OC_SPEC>:<OC_EX_SPEC>,<NAME>}
-specialized_unit_3         0,4,4,4,4,BRA # specialized unit config {<enabled>,<num_units>:<latency>:<initiation>,<ID_OC_SPEC>:<OC_EX_SPEC>,<NAME>}
-specialized_unit_4         0,4,4,4,4,BRA # specialized unit config {<enabled>,<num_units>:<latency>:<initiation>,<ID_OC_SPEC>:<OC_EX_SPEC>,<NAME>}
-specialized_unit_5         0,4,4,4,4,BRA # specialized unit config {<enabled>,<num_units>:<latency>:<initiation>,<ID_OC_SPEC>:<OC_EX_SPEC>,<NAME>}
-specialized_unit_6         0,4,4,4,4,BRA # specialized unit config {<enabled>,<num_units>:<latency>:<initiation>,<ID_OC_SPEC>:<OC_EX_SPEC>,<NAME>}
-specialized_unit_7         0,4,4,4,4,BRA # specialized unit config {<enabled>,<num_units>:<latency>:<initiation>,<ID_OC_SPEC>:<OC_EX_SPEC>,<NAME>}
-specialized_unit_8         0,4,4,4,4,BRA # specialized unit config {<enabled>,<num_units>:<latency>:<initiation>,<ID_OC_SPEC>:<OC_EX_SPEC>,<NAME>}
-gpgpu_perf_sim_memcpy                    1 # Fill the L2 cache on memcpy
-gpgpu_simple_dram_model                    0 # simple_dram_model with fixed latency and BW
-gpgpu_dram_scheduler                    1 # 0 = fifo, 1 = FR-FCFS (defaul)
-gpgpu_dram_partition_queues          64:64:64:64 # i2$:$2d:d2$:$2i
-l2_ideal                               0 # Use a ideal L2 cache that always hit
-gpgpu_cache:dl2     S:32:128:24,L:B:m:L:P,A:192:4,32:0,32 # unified banked L2 data cache config  {<nsets>:<bsize>:<assoc>,<rep>:<wr>:<alloc>:<wr_alloc>,<mshr>:<N>:<merge>,<mq>}
-gpgpu_cache:dl2_texture_only                    0 # L2 cache used for texture only
-gpgpu_n_mem                           32 # number of memory modules (e.g. memory controllers) in gpu
-gpgpu_n_sub_partition_per_mchannel                    2 # number of memory subpartition in each memory module
-gpgpu_n_mem_per_ctrlr                    1 # number of memory chips per memory controller
-gpgpu_memlatency_stat                   14 # track and display latency statistics 0x2 enables MC, 0x4 enables queue logs
-gpgpu_frfcfs_dram_sched_queue_size                   64 # 0 = unlimited (default); # entries per chip
-gpgpu_dram_return_queue_size                  192 # 0 = unlimited (default); # entries per chip
-gpgpu_dram_buswidth                   16 # default = 4 bytes (8 bytes per cycle at DDR)
-gpgpu_dram_burst_length                    2 # Burst length of each DRAM request (default = 4 data bus cycle)
-dram_data_command_freq_ratio                    2 # Frequency ratio between DRAM data bus and command bus (default = 2 times, i.e. DDR)
-gpgpu_dram_timing_opt nbk=16:CCD=1:RRD=3:RCD=12:RAS=28:RP=12:RC=40: CL=12:WL=2:CDLR=3:WR=10:nbkgrp=4:CCDL=2:RTPL=3 # DRAM timing parameters = {nbk:tCCD:tRRD:tRCD:tRAS:tRP:tRC:CL:WL:tCDLR:tWR:nbkgrp:tCCDL:tRTPL}
-gpgpu_l2_rop_latency                  160 # ROP queue latency (default 85)
-dram_latency                         200 # DRAM latency (default 30)
-dram_write_latency                   600 # DRAM write latency (default 100)
-dram_dual_bus_interface                    1 # dual_bus_interface (default = 0) 
-dram_bnk_indexing_policy                    0 # dram_bnk_indexing_policy (0 = normal indexing, 1 = Xoring with the higher bits) (Default = 0)
-dram_bnkgrp_indexing_policy                    1 # dram_bnkgrp_indexing_policy (0 = take higher bits, 1 = take lower bits) (Default = 0)
-dram_seperate_write_queue_enable                    0 # Seperate_Write_Queue_Enable
-dram_write_queue_size             32:28:16 # Write_Queue_Size
-dram_elimnate_rw_turnaround                    0 # elimnate_rw_turnaround i.e set tWTR and tRTW = 0
-icnt_flit_size                        40 # icnt_flit_size
-gpgpu_mem_addr_mapping dramid@8;00000000.00000000.00000000.00000000.0000RRRR.RRRRRRRR.RBBBCCCB.CCCSSSSS # mapping memory address to dram model {dramid@<start bit>;<memory address map>}
-gpgpu_mem_addr_test                    0 # run sweep test to check address mapping for aliased address
-gpgpu_mem_address_mask                    1 # 0 = old addressing mask, 1 = new addressing mask, 2 = new add. mask + flipped bank sel and chip sel bits
-gpgpu_memory_partition_indexing                    0 # 0 = no indexing, 1 = bitwise xoring, 2 = IPoly, 3 = custom indexing
-gpuwattch_xml_file         gpuwattch.xml # GPUWattch XML file
-power_simulation_enabled                    0 # Turn on power simulator (1=On, 0=Off)
-power_per_cycle_dump                    0 # Dump detailed power output each cycle
-power_trace_enabled                    0 # produce a file for the power trace (1=On, 0=Off)
-power_trace_zlevel                     6 # Compression level of the power trace output log (0=no comp, 9=highest)
-steady_power_levels_enabled                    0 # produce a file for the steady power levels (1=On, 0=Off)
-steady_state_definition                  8:4 # allowed deviation:number of samples
-gpgpu_max_cycle                        0 # terminates gpu simulation early (0 = no limit)
-gpgpu_max_insn                         0 # terminates gpu simulation early (0 = no limit)
-gpgpu_max_cta                          0 # terminates gpu simulation early (0 = no limit)
-gpgpu_max_completed_cta                 1000 # terminates gpu simulation early (0 = no limit)
-gpgpu_runtime_stat                   500 # display runtime statistics such as dram utilization {<freq>:<flag>}
-liveness_message_freq                    1 # Minimum number of seconds between simulation liveness messages (0 = always print)
-gpgpu_compute_capability_major                    7 # Major compute capability version number
-gpgpu_compute_capability_minor                    0 # Minor compute capability version number
-gpgpu_flush_l1_cache                    1 # Flush L1 cache at the end of each kernel call
-gpgpu_flush_l2_cache                    0 # Flush L2 cache at the end of each kernel call
-gpgpu_deadlock_detect                    1 # Stop the simulation at deadlock (1=on (default), 0=off)
-gpgpu_ptx_instruction_classification                    0 # if enabled will classify ptx instruction types per kernel (Max 255 kernels now)
-gpgpu_ptx_sim_mode                     0 # Select between Performance (default) or Functional simulation (1)
-gpgpu_clock_domains 1132.0:1132.0:1132.0:850.0 # Clock Domain Frequencies in MhZ {<Core Clock>:<ICNT Clock>:<L2 Clock>:<DRAM Clock>}
-gpgpu_max_concurrent_kernel                    8 # maximum kernels that can run concurrently on GPU
-gpgpu_cflog_interval                    0 # Interval between each snapshot in control flow logger
-visualizer_enabled               200f3ff8827e85c83ff3eefb99f59c8c  /home/pli11/Videos/parboil_benchmark/parboil/benchmarks/lbm/build/nvm_default/lbm
Extracting PTX file and ptxas options    1: lbm.1.sm_70.ptx -arch=sm_70
Extracting PTX file and ptxas options    2: lbm.2.sm_70.ptx -arch=sm_70
      0 # Turn on visualizer output (1=On, 0=Off)
-visualizer_outputfile                 NULL # Specifies the output log file for visualizer
-visualizer_zlevel                      6 # Compression level of the visualizer output log (0=no comp, 9=highest)
-gpgpu_stack_size_limit                 1024 # GPU thread stack size
-gpgpu_heap_size_limit              8388608 # GPU malloc heap size 
-gpgpu_runtime_sync_depth_limit                    2 # GPU device runtime synchronize depth
-gpgpu_runtime_pending_launch_count_limit                 2048 # GPU device runtime pending launch count
-trace_enabled                          0 # Turn on traces
-trace_components                    none # comma seperated list of traces to enable. Complete list found in trace_streams.tup. Default none
-trace_sampling_core                    0 # The core which is printed using CORE_DPRINTF. Default 0
-trace_sampling_memory_partition                   -1 # The memory partition which is printed using MEMPART_DPRINTF. Default -1 (i.e. all)
-enable_ptx_file_line_stats                    1 # Turn on PTX source line statistic profiling. (1 = On)
-ptx_line_stats_filename gpgpu_inst_stats.txt # Output file for PTX source line statistics.
-gpgpu_kernel_launch_latency                 5000 # Kernel launch latency in cycles. Default: 0
-gpgpu_cdp_enabled                      0 # Turn on CDP
-gpgpu_TB_launch_latency                    0 # thread block launch latency in cycles. Default: 0
DRAM Timing Options:
nbk                                    16 # number of banks
CCD                                     1 # column to column delay
RRD                                     3 # minimal delay between activation of rows in different banks
RCD                                    12 # row to column delay
RAS                                    28 # time needed to activate row
RP                                     12 # time needed to precharge (deactivate) row
RC                                     40 # row cycle time
CDLR                                    3 # switching from write to read (changes tWTR)
WR                                     10 # last data-in to row precharge
CL                                     12 # CAS latency
WL                                      2 # Write latency
nbkgrp                                  4 # number of bank groups
CCDL                                    2 # column to column delay between accesses to different bank groups
RTPL                                    3 # read to precharge delay between accesses to different bank groups
Total number of memory sub partition = 64
addr_dec_mask[CHIP]  = 0000000000001f00 	high:13 low:8
addr_dec_mask[BK]    = 00000000000e2000 	high:20 low:13
addr_dec_mask[ROW]   = 00000001fff00000 	high:33 low:20
addr_dec_mask[COL]   = 000000000001c0ff 	high:17 low:0
addr_dec_mask[BURST] = 000000000000001f 	high:5 low:0
sub_partition_id_mask = 0000000000002000
GPGPU-Sim uArch: clock freqs: 1132000000.000000:1132000000.000000:1132000000.000000:850000000.000000
GPGPU-Sim uArch: clock periods: 0.00000000088339222615:0.00000000088339222615:0.00000000088339222615:0.00000000117647058824
*** Initializing Memory Statistics ***
GPGPU-Sim uArch: performance model initialization complete.
self exe links to: /home/pli11/Videos/parboil_benchmark/parboil/benchmarks/lbm/build/nvm_default/lbm
self exe links to: /home/pli11/Videos/parboil_benchmark/parboil/benchmarks/lbm/build/nvm_default/lbm
10.1
GPGPU-Sim PTX: __cudaRegisterFatBinary, fat_cubin_handle = 1, filename=default
self exe links to: /home/pli11/Videos/parboil_benchmark/parboil/benchmarks/lbm/build/nvm_default/lbm
Running md5sum using "md5sum /home/pli11/Videos/parboil_benchmark/parboil/benchmarks/lbm/build/nvm_default/lbm "
self exe links to: /home/pli11/Videos/parboil_benchmark/parboil/benchmarks/lbm/build/nvm_default/lbm
Extracting specific PTX file named lbm.1.sm_70.ptx 
Extracting specific PTX file named lbm.2.sm_70.ptx 
self exe links to: /home/pli11/Videos/parboil_benchmark/parboil/benchmarks/lbm/build/nvm_default/lbm
self exe links to: /home/pli11/Videos/parboil_benchmark/parboil/benchmarks/lbm/build/nvm_default/lbm
10.1
GPGPU-Sim PTX: __cudaRegisterFatBinary, fat_cubin_handle = 2, filename=default
GPGPU-Sim PTX: __cudaRegisterFunction _Z32performStreamCollide_kernel_nvm2PfS_ : hostFun 0x0x405bab, fat_cubin_handle = 2
GPGPU-Sim PTX: Parsing lbm.1.sm_70.ptx
GPGPU-Sim PTX: finished parsing EMBEDDED .ptx file lbm.1.sm_70.ptx
GPGPU-Sim PTX: Parsing lbm.2.sm_70.ptx
GPGPU-Sim PTX: allocating global region for "NVM_log" from 0x100 to 0x4000100 (global memory space)
GPGPU-Sim PTX: allocating global region for "NVM_flag" from 0x4000100 to 0x4400100 (global memory space)
GPGPU-Sim PTX: instruction assembly for function '_Z32performStreamCollide_kernel_nvmgPfS_'...   done.
GPGPU-Sim PTX: instruction assembly for function '_Z32performStreamCollide_kernel_nvmiPfS_'...   done.
GPGPU-Sim PTX: instruction assembly for function '_Z32performStreamCollide_kernel_nvm3PfS_'...   done.
GPGPU-Sim PTX: instruction assembly for function '_Z32performStreamCollide_kernel_nvm4PfS_'...   done.
GPGPU-Sim PTX: instruction assembly for function '_Z32performStreamCollide_kernel_nvm5PfS_'...   done.
GPGPU-Sim PTX: instruction assembly for function '_Z32performStreamCollide_kernel_nvm6PfS_'...   done.
GPGPU-Sim PTX: instruction assembly for function '_Z27performStreamCollide_kernelPfS_'...   done.
GPGPU-Sim PTX: instruction assembly for function '_Z32performStreamCollide_kernel_nvmoPfS_'...   done.
GPGPU-Sim PTX: instruction assembly for function '_Z32performStreamCollide_kernel_nvmwPfS_'...   done.
GPGPU-Sim PTX: instruction assembly for function '_Z32performStreamCollide_kernel_nvmqPfS_'...   done.
GPGPU-Sim PTX: instruction assembly for function '_Z32performStreamCollide_kernel_nvmuPfS_'...   done.
GPGPU-Sim PTX: instruction assembly for function '_Z32performStreamCollide_kernel_nvmbPfS_'...   done.
GPGPU-Sim PTX: instruction assembly for function '_Z32performStreamCollide_kernel_nvmjPfS_'...   done.
GPGPU-Sim PTX: instruction assembly for function '_Z32performStreamCollide_kernel_nvmdPfS_'...   done.
GPGPU-Sim PTX: instruction assembly for function '_Z32performStreamCollide_kernel_nvmlPfS_'...   done.
GPGPU-Sim PTX: instruction assembly for function '_Z32performStreamCollide_kernel_nvm1PfS_'...   done.
GPGPU-Sim PTX: instruction assembly for function '_Z32performStreamCollide_kernel_nvm2PfS_'...   done.
GPGPU-Sim PTX: finished parsing EMBEDDED .ptx file lbm.2.sm_70.ptx
GPGPU-Sim PTX: loading globals with explicit initializers... 
GPGPU-Sim PTX: finished loading globals (0 bytes total).
GPGPU-Sim PTX: loading constants with explicit initializers...  done.
GPGPU-Sim PTX: Loading PTXInfo from lbm.1.sm_70.ptx
GPGPU-Sim PTX: Loading PTXInfo from lbm.2.sm_70.ptx
GPGPU-Sim PTX: Kernel '_Z32performStreamCollide_kernel_nvm2PfS_' : regs=44, lmem=0, smem=0, cmem=368
GPGPU-Sim PTX: Kernel '_Z32performStreamCollide_kernel_nvm1PfS_' : regs=44, lmem=0, smem=0, cmem=368
GPGPU-Sim PTX: Kernel '_Z32performStreamCollide_kernel_nvmlPfS_' : regs=40, lmem=0, smem=0, cmem=368
GPGPU-Sim PTX: Kernel '_Z32performStreamCollide_kernel_nvmdPfS_' : regs=40, lmem=0, smem=0, cmem=368
GPGPU-Sim PTX: Kernel '_Z32performStreamCollide_kernel_nvmjPfS_' : regs=40, lmem=0, smem=0, cmem=368
GPGPU-Sim PTX: Kernel '_Z32performStreamCollide_kernel_nvmbPfS_' : regs=40, lmem=0, smem=0, cmem=368
GPGPU-Sim PTX: Kernel '_Z32performStreamCollide_kernel_nvmuPfS_' : regs=40, lmem=0, smem=0, cmem=368
GPGPU-Sim PTX: Kernel '_Z32performStreamCollide_kernel_nvmqPfS_' : regs=40, lmem=0, smem=0, cmem=368
GPGPU-Sim PTX: Kernel '_Z32performStreamCollide_kernel_nvmwPfS_' : regs=40, lmem=0, smem=0, cmem=368
GPGPU-Sim PTX: Kernel '_Z32performStreamCollide_kernel_nvmoPfS_' : regs=40, lmem=0, smem=0, cmem=368
GPGPU-Sim PTX: Kernel '_Z27performStreamCollide_kernelPfS_' : regs=40, lmem=0, smem=0, cmem=368
GPGPU-Sim PTX: Kernel '_Z32performStreamCollide_kernel_nvm6PfS_' : regs=44, lmem=0, smem=0, cmem=368
GPGPU-Sim PTX: Kernel '_Z32performStreamCollide_kernel_nvm5PfS_' : regs=44, lmem=0, smem=0, cmem=368
GPGPU-Sim PTX: Kernel '_Z32performStreamCollide_kernel_nvm4PfS_' : regs=56, lmem=0, smem=0, cmem=368
GPGPU-Sim PTX: Kernel '_Z32performStreamCollide_kernel_nvm3PfS_' : regs=56, lmem=0, smem=0, cmem=368
GPGPU-Sim PTX: Kernel '_Z32performStreamCollide_kernel_nvmiPfS_' : regs=48, lmem=0, smem=0, cmem=368
GPGPU-Sim PTX: Kernel '_Z32performStreamCollide_kernel_nvmgPfS_' : regs=48, lmem=0, smem=0, cmem=368
GPGPU-Sim PTX: __cudaRegisterFunction _Z32performStreamCollide_kernel_nvm1PfS_ : hostFun 0x0x405a6b, fat_cubin_handle = 2
GPGPU-Sim PTX: __cudaRegisterFunction _Z32performStreamCollide_kernel_nvmlPfS_ : hostFun 0x0x40592b, fat_cubin_handle = 2
GPGPU-Sim PTX: __cudaRegisterFunction _Z32performStreamCollide_kernel_nvmdPfS_ : hostFun 0x0x4057eb, fat_cubin_handle = 2
GPGPU-Sim PTX: __cudaRegisterFunction _Z32performStreamCollide_kernel_nvmjPfS_ : hostFun 0x0x4056ab, fat_cubin_handle = 2
GPGPU-Sim PTX: __cudaRegisterFunction _Z32performStreamCollide_kernel_nvmbPfS_ : hostFun 0x0x40556b, fat_cubin_handle = 2
GPGPU-Sim PTX: __cudaRegisterFunction _Z32performStreamCollide_kernel_nvmuPfS_ : hostFun 0x0x40542b, fat_cubin_handle = 2
GPGPU-Sim PTX: __cudaRegisterFunction _Z32performStreamCollide_kernel_nvmqPfS_ : hostFun 0x0x4052eb, fat_cubin_handle = 2
GPGPU-Sim PTX: __cudaRegisterFunction _Z32performStreamCollide_kernel_nvmwPfS_ : hostFun 0x0x4051ab, fat_cubin_handle = 2
GPGPU-Sim PTX: __cudaRegisterFunction _Z32performStreamCollide_kernel_nvmoPfS_ : hostFun 0x0x40506b, fat_cubin_handle = 2
GPGPU-Sim PTX: __cudaRegisterFunction _Z27performStreamCollide_kernelPfS_ : hostFun 0x0x404f2b, fat_cubin_handle = 2
GPGPU-Sim PTX: __cudaRegisterFunction _Z32performStreamCollide_kernel_nvm6PfS_ : hostFun 0x0x404deb, fat_cubin_handle = 2
GPGPU-Sim PTX: __cudaRegisterFunction _Z32performStreamCollide_kernel_nvm5PfS_ : hostFun 0x0x404cab, fat_cubin_handle = 2
GPGPU-Sim PTX: __cudaRegisterFunction _Z32performStreamCollide_kernel_nvm4PfS_ : hostFun 0x0x404b6b, fat_cubin_handle = 2
GPGPU-Sim PTX: __cudaRegisterFunction _Z32performStreamCollide_kernel_nvm3PfS_ : hostFun 0x0x404a2b, fat_cubin_handle = 2
GPGPU-Sim PTX: __cudaRegisterFunction _Z32performStreamCollide_kernel_nvmiPfS_ : hostFun 0x0x4048eb, fat_cubin_handle = 2
GPGPU-Sim PTX: __cudaRegisterFunction _Z32performStreamCollide_kernel_nvmgPfS_ : hostFun 0x0x4047ab, fat_cubin_handle = 2
GPGPU-Sim PTX: __cudaRegisterVar: hostVar = 0x60f380; deviceAddress = NVM_log; deviceName = NVM_log
GPGPU-Sim PTX: __cudaRegisterVar: Registering const memory space of 67108864 bytes
GPGPU-Sim PTX registering global NVM_log hostVar to name mapping
GPGPU-Sim PTX: __cudaRegisterVar: hostVar = 0x460f380; deviceAddress = NVM_flag; deviceName = NVM_flag
GPGPU-Sim PTX: __cudaRegisterVar: Registering const memory space of 4194304 bytes
GPGPU-Sim PTX registering global NVM_flag hostVar to name mapping
LBM_allocateGrid: allocated 185.2 MByte
MAIN_printInfo:
	grid size      : 120 x 120 x 150 = 2.16 * 10^6 Cells
	nTimeSteps     : 3000
	result file    : /home/pli11/Videos/parboil_benchmark/parboil/benchmarks/lbm/run/long/reference.dat
	action         : store
	simulation type: lid-driven cavity
	obstacle file  : /home/pli11/Videos/parboil_benchmark/parboil/datasets/lbm/long/input/120_120_150_ldc.of

LBM_allocateGrid: allocated 185.2 MByte
LBM_allocateGrid: allocated 185.2 MByte
LBM_showGridStatistics:
	nObstacleCells:  343321 nAccelCells:   26912 nFluidCells: 1789767
	minRho:   1.0000 maxRho:   1.0000 mass: 2.160000e+06
	minU: 0.000000e+00 maxU: 0.000000e+00

event update
GPGPU-Sim: synchronize waiting for inactive GPU simulation
GPGPU-Sim API: Stream Manager State
GPGPU-Sim: detected inactive GPU simulation thread
GPGPU-Sim PTX: Setting up arguments for 8 bytes starting at 0x7ffe77560718..
GPGPU-Sim PTX: Setting up arguments for 8 bytes starting at 0x7ffe77560710..

GPGPU-Sim PTX: cudaLaunch for 0x0x404a2b (mode=performance simulation) on stream 0
GPGPU-Sim PTX: finding reconvergence points for '_Z32performStreamCollide_kernel_nvm3PfS_'...
GPGPU-Sim PTX: Finding dominators for '_Z32performStreamCollide_kernel_nvm3PfS_'...
GPGPU-Sim PTX: Finding immediate dominators for '_Z32performStreamCollide_kernel_nvm3PfS_'...
GPGPU-Sim PTX: Finding postdominators for '_Z32performStreamCollide_kernel_nvm3PfS_'...
GPGPU-Sim PTX: Finding immediate postdominators for '_Z32performStreamCollide_kernel_nvm3PfS_'...
GPGPU-Sim PTX: pre-decoding instructions for '_Z32performStreamCollide_kernel_nvm3PfS_'...
GPGPU-Sim PTX: reconvergence points for _Z32performStreamCollide_kernel_nvm3PfS_...
GPGPU-Sim PTX:  1 (potential) branch divergence @  PC=0x1650 (lbm.2.sm_70.ptx:931) @%p2 bra BB2_1;
GPGPU-Sim PTX:    immediate post dominator      @  PC=0x1be8 (lbm.2.sm_70.ptx:1116) shl.b64 %rd46, %rd1, 2;
GPGPU-Sim PTX:  2 (potential) branch divergence @  PC=0x1658 (lbm.2.sm_70.ptx:932) bra.uni BB2_2;
GPGPU-Sim PTX:    immediate post dominator      @  PC=0x16b0 (lbm.2.sm_70.ptx:947) add.f32 %f58, %f238, %f236;
GPGPU-Sim PTX:  3 (potential) branch divergence @  PC=0x16a8 (lbm.2.sm_70.ptx:944) bra.uni BB2_3;
GPGPU-Sim PTX:    immediate post dominator      @  PC=0x1be8 (lbm.2.sm_70.ptx:1116) shl.b64 %rd46, %rd1, 2;
GPGPU-Sim PTX:  4 (potential) branch divergence @  PC=0x1e38 (lbm.2.sm_70.ptx:1268) @%p4 bra BB2_5;
GPGPU-Sim PTX:    immediate post dominator      @  PC=0x1ea8 (lbm.2.sm_70.ptx:1291) setp.eq.s32%p1, %r7, %r8;
GPGPU-Sim PTX:  5 (potential) branch divergence @  PC=0x20b0 (lbm.2.sm_70.ptx:1396) @!%p1 bra BB2_7;
GPGPU-Sim PTX:    immediate post dominator      @  PC=0x2128 (lbm.2.sm_70.ptx:1421) ret;
GPGPU-Sim PTX:  6 (potential) branch divergence @  PC=0x20b8 (lbm.2.sm_70.ptx:1397) bra.uni BB2_6;
GPGPU-Sim PTX:    immediate post dominator      @  PC=0x20c0 (lbm.2.sm_70.ptx:1400) mov.u32 %r70, %nctaid.x;
GPGPU-Sim PTX: ... end of reconvergence points for _Z32performStreamCollide_kernel_nvm3PfS_
GPGPU-Sim PTX: ... done pre-decoding instructions for '_Z32performStreamCollide_kernel_nvm3PfS_'.
GPGPU-Sim PTX: pushing kernel '_Z32performStreamCollide_kernel_nvm3PfS_' to stream 0, gridDim= (120,150,1) blockDim = (120,1,1) 
GPGPU-Sim uArch: Shader 0 bind to kernel 1 '_Z32performStreamCollide_kernel_nvm3PfS_'
GPGPU-Sim uArch: CTA/core = 9, limited by: regs
GPGPU-Sim: Reconfigure L1 cache to 128KB
GPGPU-Sim uArch: Shader 1 bind to kernel 1 '_Z32performStreamCollide_kernel_nvm3PfS_'
GPGPU-Sim uArch: Shader 2 bind to kernel 1 '_Z32performStreamCollide_kernel_nvm3PfS_'
GPGPU-Sim uArch: Shader 3 bind to kernel 1 '_Z32performStreamCollide_kernel_nvm3PfS_'
GPGPU-Sim uArch: Shader 4 bind to kernel 1 '_Z32performStreamCollide_kernel_nvm3PfS_'
GPGPU-Sim uArch: Shader 5 bind to kernel 1 '_Z32performStreamCollide_kernel_nvm3PfS_'
GPGPU-Sim uArch: Shader 6 bind to kernel 1 '_Z32performStreamCollide_kernel_nvm3PfS_'
GPGPU-Sim uArch: Shader 7 bind to kernel 1 '_Z32performStreamCollide_kernel_nvm3PfS_'
GPGPU-Sim uArch: Shader 8 bind to kernel 1 '_Z32performStreamCollide_kernel_nvm3PfS_'
GPGPU-Sim uArch: Shader 9 bind to kernel 1 '_Z32performStreamCollide_kernel_nvm3PfS_'
GPGPU-Sim uArch: Shader 10 bind to kernel 1 '_Z32performStreamCollide_kernel_nvm3PfS_'
GPGPU-Sim uArch: Shader 11 bind to kernel 1 '_Z32performStreamCollide_kernel_nvm3PfS_'
GPGPU-Sim uArch: Shader 12 bind to kernel 1 '_Z32performStreamCollide_kernel_nvm3PfS_'
GPGPU-Sim uArch: Shader 13 bind to kernel 1 '_Z32performStreamCollide_kernel_nvm3PfS_'
GPGPU-Sim uArch: Shader 14 bind to kernel 1 '_Z32performStreamCollide_kernel_nvm3PfS_'
GPGPU-Sim uArch: Shader 15 bind to kernel 1 '_Z32performStreamCollide_kernel_nvm3PfS_'
GPGPU-Sim uArch: Shader 16 bind to kernel 1 '_Z32performStreamCollide_kernel_nvm3PfS_'
GPGPU-Sim uArch: Shader 17 bind to kernel 1 '_Z32performStreamCollide_kernel_nvm3PfS_'
GPGPU-Sim uArch: Shader 18 bind to kernel 1 '_Z32performStreamCollide_kernel_nvm3PfS_'
GPGPU-Sim uArch: Shader 19 bind to kernel 1 '_Z32performStreamCollide_kernel_nvm3PfS_'
GPGPU-Sim uArch: Shader 20 bind to kernel 1 '_Z32performStreamCollide_kernel_nvm3PfS_'
GPGPU-Sim uArch: Shader 21 bind to kernel 1 '_Z32performStreamCollide_kernel_nvm3PfS_'
GPGPU-Sim uArch: Shader 22 bind to kernel 1 '_Z32performStreamCollide_kernel_nvm3PfS_'
GPGPU-Sim uArch: Shader 23 bind to kernel 1 '_Z32performStreamCollide_kernel_nvm3PfS_'
GPGPU-Sim uArch: Shader 24 bind to kernel 1 '_Z32performStreamCollide_kernel_nvm3PfS_'
GPGPU-Sim uArch: Shader 25 bind to kernel 1 '_Z32performStreamCollide_kernel_nvm3PfS_'
GPGPU-Sim uArch: Shader 26 bind to kernel 1 '_Z32performStreamCollide_kernel_nvm3PfS_'
GPGPU-Sim uArch: Shader 27 bind to kernel 1 '_Z32performStreamCollide_kernel_nvm3PfS_'
GPGPU-Sim uArch: Shader 28 bind to kernel 1 '_Z32performStreamCollide_kernel_nvm3PfS_'
GPGPU-Sim uArch: Shader 29 bind to kernel 1 '_Z32performStreamCollide_kernel_nvm3PfS_'
GPGPU-Sim uArch: Shader 30 bind to kernel 1 '_Z32performStreamCollide_kernel_nvm3PfS_'
GPGPU-Sim uArch: Shader 31 bind to kernel 1 '_Z32performStreamCollide_kernel_nvm3PfS_'
GPGPU-Sim uArch: Shader 32 bind to kernel 1 '_Z32performStreamCollide_kernel_nvm3PfS_'
GPGPU-Sim uArch: Shader 33 bind to kernel 1 '_Z32performStreamCollide_kernel_nvm3PfS_'
GPGPU-Sim uArch: Shader 34 bind to kernel 1 '_Z32performStreamCollide_kernel_nvm3PfS_'
GPGPU-Sim uArch: Shader 35 bind to kernel 1 '_Z32performStreamCollide_kernel_nvm3PfS_'
GPGPU-Sim uArch: Shader 36 bind to kernel 1 '_Z32performStreamCollide_kernel_nvm3PfS_'
GPGPU-Sim uArch: Shader 37 bind to kernel 1 '_Z32performStreamCollide_kernel_nvm3PfS_'
GPGPU-Sim uArch: Shader 38 bind to kernel 1 '_Z32performStreamCollide_kernel_nvm3PfS_'
GPGPU-Sim uArch: Shader 39 bind to kernel 1 '_Z32performStreamCollide_kernel_nvm3PfS_'
GPGPU-Sim uArch: Shader 40 bind to kernel 1 '_Z32performStreamCollide_kernel_nvm3PfS_'
GPGPU-Sim uArch: Shader 41 bind to kernel 1 '_Z32performStreamCollide_kernel_nvm3PfS_'
GPGPU-Sim uArch: Shader 42 bind to kernel 1 '_Z32performStreamCollide_kernel_nvm3PfS_'
GPGPU-Sim uArch: Shader 43 bind to kernel 1 '_Z32performStreamCollide_kernel_nvm3PfS_'
GPGPU-Sim uArch: Shader 44 bind to kernel 1 '_Z32performStreamCollide_kernel_nvm3PfS_'
GPGPU-Sim uArch: Shader 45 bind to kernel 1 '_Z32performStreamCollide_kernel_nvm3PfS_'
GPGPU-Sim uArch: Shader 46 bind to kernel 1 '_Z32performStreamCollide_kernel_nvm3PfS_'
GPGPU-Sim uArch: Shader 47 bind to kernel 1 '_Z32performStreamCollide_kernel_nvm3PfS_'
GPGPU-Sim uArch: Shader 48 bind to kernel 1 '_Z32performStreamCollide_kernel_nvm3PfS_'
GPGPU-Sim uArch: Shader 49 bind to kernel 1 '_Z32performStreamCollide_kernel_nvm3PfS_'
GPGPU-Sim uArch: Shader 50 bind to kernel 1 '_Z32performStreamCollide_kernel_nvm3PfS_'
GPGPU-Sim uArch: Shader 51 bind to kernel 1 '_Z32performStreamCollide_kernel_nvm3PfS_'
GPGPU-Sim uArch: Shader 52 bind to kernel 1 '_Z32performStreamCollide_kernel_nvm3PfS_'
GPGPU-Sim uArch: Shader 53 bind to kernel 1 '_Z32performStreamCollide_kernel_nvm3PfS_'
GPGPU-Sim uArch: Shader 54 bind to kernel 1 '_Z32performStreamCollide_kernel_nvm3PfS_'
GPGPU-Sim uArch: Shader 55 bind to kernel 1 '_Z32performStreamCollide_kernel_nvm3PfS_'
GPGPU-Sim uArch: Shader 56 bind to kernel 1 '_Z32performStreamCollide_kernel_nvm3PfS_'
GPGPU-Sim uArch: Shader 57 bind to kernel 1 '_Z32performStreamCollide_kernel_nvm3PfS_'
GPGPU-Sim uArch: Shader 58 bind to kernel 1 '_Z32performStreamCollide_kernel_nvm3PfS_'
GPGPU-Sim uArch: Shader 59 bind to kernel 1 '_Z32performStreamCollide_kernel_nvm3PfS_'
GPGPU-Sim uArch: Shader 60 bind to kernel 1 '_Z32performStreamCollide_kernel_nvm3PfS_'
GPGPU-Sim uArch: Shader 61 bind to kernel 1 '_Z32performStreamCollide_kernel_nvm3PfS_'
GPGPU-Sim uArch: Shader 62 bind to kernel 1 '_Z32performStreamCollide_kernel_nvm3PfS_'
GPGPU-Sim uArch: Shader 63 bind to kernel 1 '_Z32performStreamCollide_kernel_nvm3PfS_'
GPGPU-Sim uArch: Shader 64 bind to kernel 1 '_Z32performStreamCollide_kernel_nvm3PfS_'
GPGPU-Sim uArch: Shader 65 bind to kernel 1 '_Z32performStreamCollide_kernel_nvm3PfS_'
GPGPU-Sim uArch: Shader 66 bind to kernel 1 '_Z32performStreamCollide_kernel_nvm3PfS_'
GPGPU-Sim uArch: Shader 67 bind to kernel 1 '_Z32performStreamCollide_kernel_nvm3PfS_'
GPGPU-Sim uArch: Shader 68 bind to kernel 1 '_Z32performStreamCollide_kernel_nvm3PfS_'
GPGPU-Sim uArch: Shader 69 bind to kernel 1 '_Z32performStreamCollide_kernel_nvm3PfS_'
GPGPU-Sim uArch: Shader 70 bind to kernel 1 '_Z32performStreamCollide_kernel_nvm3PfS_'
GPGPU-Sim uArch: Shader 71 bind to kernel 1 '_Z32performStreamCollide_kernel_nvm3PfS_'
GPGPU-Sim uArch: Shader 72 bind to kernel 1 '_Z32performStreamCollide_kernel_nvm3PfS_'
GPGPU-Sim uArch: Shader 73 bind to kernel 1 '_Z32performStreamCollide_kernel_nvm3PfS_'
GPGPU-Sim uArch: Shader 74 bind to kernel 1 '_Z32performStreamCollide_kernel_nvm3PfS_'
GPGPU-Sim uArch: Shader 75 bind to kernel 1 '_Z32performStreamCollide_kernel_nvm3PfS_'
GPGPU-Sim uArch: Shader 76 bind to kernel 1 '_Z32performStreamCollide_kernel_nvm3PfS_'
GPGPU-Sim uArch: Shader 77 bind to kernel 1 '_Z32performStreamCollide_kernel_nvm3PfS_'
GPGPU-Sim uArch: Shader 78 bind to kernel 1 '_Z32performStreamCollide_kernel_nvm3PfS_'
GPGPU-Sim uArch: Shader 79 bind to kernel 1 '_Z32performStreamCollide_kernel_nvm3PfS_'
kernel_name = _Z32performStreamCollide_kernel_nvm3PfS_ 
kernel_launch_uid = 1 
gpu_sim_cycle = 82553
gpu_sim_insn = 55826848
gpu_ipc =     676.2546
gpu_tot_sim_cycle = 82553
gpu_tot_sim_insn = 55826848
gpu_tot_ipc =     676.2546
gpu_tot_issued_cta = 1720
gpu_occupancy = 53.6119% 
gpu_tot_occupancy = 53.6119% 
max_total_param_size = 0
gpu_stall_dramfull = 1530103
gpu_stall_icnt2sh    = 0
partiton_level_parallism =      26.4315
partiton_level_parallism_total  =      26.4315
partiton_level_parallism_util =      30.1323
partiton_level_parallism_util_total  =      30.1323
L2_BW  =     952.0177 GB/Sec
L2_BW_total  =     952.0177 GB/Sec
gpu_total_sim_rate=81499
############## bottleneck_stats #############
cycles: core 82553, icnt 82553, l2 82553, dram 61987
gpu_ipc	676.255
gpu_tot_issued_cta = 1720, average cycles = 48
n_dram_writes	 0, n_dram_reads	 0
n_GLOBAL_ACC_R	 486742 
n_LOCAL_ACC_R	 0 
n_CONST_ACC_R	 0 
n_TEXTURE_ACC_R	 0 
n_GLOBAL_ACC_W	 0 
n_LOCAL_ACC_W	 0 
n_L1_WRBK_ACC	 0 
n_L2_WRBK_ACC	 193246 
n_L1_WR_ALLOC_R	 0 
n_L2_WR_ALLOC_R	 0 

n_sm	 80, n_schedulers	 4
scheduler util	0.074	80
L1D data util	0.806	80	0.911	12
L1D tag util	0.468	80	0.524	34
L2 data util	0.623	64	0.655	24
L2 tag util	0.412	64	0.428	17
n_l2_access	 2177133
icnt s2m util	0.000	0	0.000	17	flits per packet: -nan
icnt m2s util	0.000	0	0.000	17	flits per packet: -nan
sum=0
n_mem	 32
dram util	0.581	32	0.602	8

latency_l2_hit:	1589861602, num_l2_reqs:	848950
L2 hit latency:	1872
latency_dram:	-926465859, num_dram_reqs:	1319536
DRAM latency:	2552

n_reg	65536, n_smem	98304, n_thread	2048, n_tb	32
reg file	0.984
smem size	0.000
thread slot	0.562
TB slot    	0.281
L1I tag util	0.150	80	0.170	50

n_mem_pipe	1, n_sp_pipe	4, n_sfu_pipe	4
mem pipe util	0.083	80	0.095	32
sp pipe util	0.049	80	0.057	50
sfu pipe util	0.003	80	0.003	50
ldst mem cycle	0.136	80	0.159	32

smem port	0.000	0

n_reg_bank	16
reg port	0.043	16	0.054	10
L1D tag util	0.468	80	0.524	34
L1D fill util	0.073	80	0.083	69
n_l1d_mshr	4096
L1D mshr util	0.063	80
n_l1d_missq	16
L1D missq util	0.424	80
L1D hit rate	0.000
L1D miss rate	0.431
L1D rsfail rate	0.569
L2 tag util	0.412	64	0.428	17
L2 fill util	0.092	64	0.098	57
n_l2_mshr	192
n_l2_missq	32
L2 mshr util	0.462	64	0.530	8
L2 missq util	0.006	64	0.006	61
L2 hit rate	0.390
L2 miss rate	0.610
L2 rsfail rate	0.000

dram activity	0.892	32	0.904	2

load trans eff	1.000
load trans sz	32.000
load_useful_bytes 16036544, load_transaction_bytes 16036544, icnt_m2s_bytes 0
n_gmem_load_insns 133630, n_gmem_load_accesses 501142
n_smem_access_insn 0, n_smem_accesses 0

tmp_counter/12	0.464

run 0.017, fetch 0.001, sync 0.457, control 0.000, data 0.434, struct 0.091
############ end_bottleneck_stats #############

========= Core cache stats =========
L1I_cache:
	L1I_total_cache_accesses = 0
	L1I_total_cache_misses = 0
	L1I_total_cache_pending_hits = 0
	L1I_total_cache_reservation_fails = 0
L1D_cache:
	L1D_cache_core[0]: Access = 16518, Miss = 16518, Miss_rate = 1.000, Pending_hits = 0, Reservation_fails = 18828
	L1D_cache_core[1]: Access = 16821, Miss = 16821, Miss_rate = 1.000, Pending_hits = 0, Reservation_fails = 19908
	L1D_cache_core[2]: Access = 16367, Miss = 16367, Miss_rate = 1.000, Pending_hits = 0, Reservation_fails = 21579
	L1D_cache_core[3]: Access = 16852, Miss = 16852, Miss_rate = 1.000, Pending_hits = 0, Reservation_fails = 23816
	L1D_cache_core[4]: Access = 18637, Miss = 18637, Miss_rate = 1.000, Pending_hits = 0, Reservation_fails = 21872
	L1D_cache_core[5]: Access = 14891, Miss = 14891, Miss_rate = 1.000, Pending_hits = 0, Reservation_fails = 23098
	L1D_cache_core[6]: Access = 15849, Miss = 15849, Miss_rate = 1.000, Pending_hits = 0, Reservation_fails = 23156
	L1D_cache_core[7]: Access = 18473, Miss = 18473, Miss_rate = 1.000, Pending_hits = 0, Reservation_fails = 19570
	L1D_cache_core[8]: Access = 16337, Miss = 16337, Miss_rate = 1.000, Pending_hits = 0, Reservation_fails = 23589
	L1D_cache_core[9]: Access = 15514, Miss = 15514, Miss_rate = 1.000, Pending_hits = 0, Reservation_fails = 19968
	L1D_cache_core[10]: Access = 14024, Miss = 14024, Miss_rate = 1.000, Pending_hits = 0, Reservation_fails = 22656
	L1D_cache_core[11]: Access = 16070, Miss = 16070, Miss_rate = 1.000, Pending_hits = 0, Reservation_fails = 18061
	L1D_cache_core[12]: Access = 18793, Miss = 18793, Miss_rate = 1.000, Pending_hits = 0, Reservation_fails = 19531
	L1D_cache_core[13]: Access = 17553, Miss = 17553, Miss_rate = 1.000, Pending_hits = 0, Reservation_fails = 20955
	L1D_cache_core[14]: Access = 16731, Miss = 16731, Miss_rate = 1.000, Pending_hits = 0, Reservation_fails = 22246
	L1D_cache_core[15]: Access = 16010, Miss = 16010, Miss_rate = 1.000, Pending_hits = 0, Reservation_fails = 23676
	L1D_cache_core[16]: Access = 16617, Miss = 16617, Miss_rate = 1.000, Pending_hits = 0, Reservation_fails = 18754
	L1D_cache_core[17]: Access = 16641, Miss = 16641, Miss_rate = 1.000, Pending_hits = 0, Reservation_fails = 23705
	L1D_cache_core[18]: Access = 16878, Miss = 16878, Miss_rate = 1.000, Pending_hits = 0, Reservation_fails = 19289
	L1D_cache_core[19]: Access = 18196, Miss = 18196, Miss_rate = 1.000, Pending_hits = 0, Reservation_fails = 20008
	L1D_cache_core[20]: Access = 17751, Miss = 17751, Miss_rate = 1.000, Pending_hits = 0, Reservation_fails = 20557
	L1D_cache_core[21]: Access = 17538, Miss = 17538, Miss_rate = 1.000, Pending_hits = 0, Reservation_fails = 22358
	L1D_cache_core[22]: Access = 16716, Miss = 16716, Miss_rate = 1.000, Pending_hits = 0, Reservation_fails = 25217
	L1D_cache_core[23]: Access = 17158, Miss = 17158, Miss_rate = 1.000, Pending_hits = 0, Reservation_fails = 20946
	L1D_cache_core[24]: Access = 15795, Miss = 15795, Miss_rate = 1.000, Pending_hits = 0, Reservation_fails = 25059
	L1D_cache_core[25]: Access = 15851, Miss = 15851, Miss_rate = 1.000, Pending_hits = 0, Reservation_fails = 23180
	L1D_cache_core[26]: Access = 15442, Miss = 15442, Miss_rate = 1.000, Pending_hits = 0, Reservation_fails = 24720
	L1D_cache_core[27]: Access = 17687, Miss = 17687, Miss_rate = 1.000, Pending_hits = 0, Reservation_fails = 20372
	L1D_cache_core[28]: Access = 14229, Miss = 14229, Miss_rate = 1.000, Pending_hits = 0, Reservation_fails = 24158
	L1D_cache_core[29]: Access = 16311, Miss = 16311, Miss_rate = 1.000, Pending_hits = 0, Reservation_fails = 22253
	L1D_cache_core[30]: Access = 16765, Miss = 16765, Miss_rate = 1.000, Pending_hits = 0, Reservation_fails = 23228
	L1D_cache_core[31]: Access = 17562, Miss = 17562, Miss_rate = 1.000, Pending_hits = 0, Reservation_fails = 21493
	L1D_cache_core[32]: Access = 18785, Miss = 18785, Miss_rate = 1.000, Pending_hits = 0, Reservation_fails = 17012
	L1D_cache_core[33]: Access = 14897, Miss = 14897, Miss_rate = 1.000, Pending_hits = 0, Reservation_fails = 20373
	L1D_cache_core[34]: Access = 17789, Miss = 17789, Miss_rate = 1.000, Pending_hits = 0, Reservation_fails = 25453
	L1D_cache_core[35]: Access = 16905, Miss = 16905, Miss_rate = 1.000, Pending_hits = 0, Reservation_fails = 21078
	L1D_cache_core[36]: Access = 16042, Miss = 16042, Miss_rate = 1.000, Pending_hits = 0, Reservation_fails = 24465
	L1D_cache_core[37]: Access = 15134, Miss = 15134, Miss_rate = 1.000, Pending_hits = 0, Reservation_fails = 23043
	L1D_cache_core[38]: Access = 15122, Miss = 15122, Miss_rate = 1.000, Pending_hits = 0, Reservation_fails = 24718
	L1D_cache_core[39]: Access = 17225, Miss = 17225, Miss_rate = 1.000, Pending_hits = 0, Reservation_fails = 24414
	L1D_cache_core[40]: Access = 17023, Miss = 17023, Miss_rate = 1.000, Pending_hits = 0, Reservation_fails = 22909
	L1D_cache_core[41]: Access = 16015, Miss = 16015, Miss_rate = 1.000, Pending_hits = 0, Reservation_fails = 22720
	L1D_cache_core[42]: Access = 14297, Miss = 14297, Miss_rate = 1.000, Pending_hits = 0, Reservation_fails = 27055
	L1D_cache_core[43]: Access = 16360, Miss = 16360, Miss_rate = 1.000, Pending_hits = 0, Reservation_fails = 23930
	L1D_cache_core[44]: Access = 16023, Miss = 16023, Miss_rate = 1.000, Pending_hits = 0, Reservation_fails = 17932
	L1D_cache_core[45]: Access = 15969, Miss = 15969, Miss_rate = 1.000, Pending_hits = 0, Reservation_fails = 24538
	L1D_cache_core[46]: Access = 17513, Miss = 17513, Miss_rate = 1.000, Pending_hits = 0, Reservation_fails = 19350
	L1D_cache_core[47]: Access = 17220, Miss = 17220, Miss_rate = 1.000, Pending_hits = 0, Reservation_fails = 20184
	L1D_cache_core[48]: Access = 17521, Miss = 17521, Miss_rate = 1.000, Pending_hits = 0, Reservation_fails = 18624
	L1D_cache_core[49]: Access = 17499, Miss = 17499, Miss_rate = 1.000, Pending_hits = 0, Reservation_fails = 21580
	L1D_cache_core[50]: Access = 18093, Miss = 18093, Miss_rate = 1.000, Pending_hits = 0, Reservation_fails = 20972
	L1D_cache_core[51]: Access = 15900, Miss = 15900, Miss_rate = 1.000, Pending_hits = 0, Reservation_fails = 21378
	L1D_cache_core[52]: Access = 16916, Miss = 16916, Miss_rate = 1.000, Pending_hits = 0, Reservation_fails = 21644
	L1D_cache_core[53]: Access = 15933, Miss = 15933, Miss_rate = 1.000, Pending_hits = 0, Reservation_fails = 24316
	L1D_cache_core[54]: Access = 15199, Miss = 15199, Miss_rate = 1.000, Pending_hits = 0, Reservation_fails = 25347
	L1D_cache_core[55]: Access = 17249, Miss = 17249, Miss_rate = 1.000, Pending_hits = 0, Reservation_fails = 21722
	L1D_cache_core[56]: Access = 17268, Miss = 17268, Miss_rate = 1.000, Pending_hits = 0, Reservation_fails = 21373
	L1D_cache_core[57]: Access = 16819, Miss = 16819, Miss_rate = 1.000, Pending_hits = 0, Reservation_fails = 22784
	L1D_cache_core[58]: Access = 14270, Miss = 14270, Miss_rate = 1.000, Pending_hits = 0, Reservation_fails = 27416
	L1D_cache_core[59]: Access = 16191, Miss = 16191, Miss_rate = 1.000, Pending_hits = 0, Reservation_fails = 23105
	L1D_cache_core[60]: Access = 16641, Miss = 16641, Miss_rate = 1.000, Pending_hits = 0, Reservation_fails = 17941
	L1D_cache_core[61]: Access = 16802, Miss = 16802, Miss_rate = 1.000, Pending_hits = 0, Reservation_fails = 20004
	L1D_cache_core[62]: Access = 18055, Miss = 18055, Miss_rate = 1.000, Pending_hits = 0, Reservation_fails = 21313
	L1D_cache_core[63]: Access = 16080, Miss = 16080, Miss_rate = 1.000, Pending_hits = 0, Reservation_fails = 22558
	L1D_cache_core[64]: Access = 18057, Miss = 18057, Miss_rate = 1.000, Pending_hits = 0, Reservation_fails = 21849
	L1D_cache_core[65]: Access = 16569, Miss = 16569, Miss_rate = 1.000, Pending_hits = 0, Reservation_fails = 21979
	L1D_cache_core[66]: Access = 17383, Miss = 17383, Miss_rate = 1.000, Pending_hits = 0, Reservation_fails = 20970
	L1D_cache_core[67]: Access = 17508, Miss = 17508, Miss_rate = 1.000, Pending_hits = 0, Reservation_fails = 20233
	L1D_cache_core[68]: Access = 17188, Miss = 17188, Miss_rate = 1.000, Pending_hits = 0, Reservation_fails = 24561
	L1D_cache_core[69]: Access = 18043, Miss = 18043, Miss_rate = 1.000, Pending_hits = 0, Reservation_fails = 19921
	L1D_cache_core[70]: Access = 16564, Miss = 16564, Miss_rate = 1.000, Pending_hits = 0, Reservation_fails = 25019
	L1D_cache_core[71]: Access = 16697, Miss = 16697, Miss_rate = 1.000, Pending_hits = 0, Reservation_fails = 20773
	L1D_cache_core[72]: Access = 16615, Miss = 16615, Miss_rate = 1.000, Pending_hits = 0, Reservation_fails = 19265
	L1D_cache_core[73]: Access = 17142, Miss = 17142, Miss_rate = 1.000, Pending_hits = 0, Reservation_fails = 21308
	L1D_cache_core[74]: Access = 17494, Miss = 17494, Miss_rate = 1.000, Pending_hits = 0, Reservation_fails = 21907
	L1D_cache_core[75]: Access = 15924, Miss = 15924, Miss_rate = 1.000, Pending_hits = 0, Reservation_fails = 22406
	L1D_cache_core[76]: Access = 16155, Miss = 16155, Miss_rate = 1.000, Pending_hits = 0, Reservation_fails = 20403
	L1D_cache_core[77]: Access = 14236, Miss = 14236, Miss_rate = 1.000, Pending_hits = 0, Reservation_fails = 23812
	L1D_cache_core[78]: Access = 17456, Miss = 17456, Miss_rate = 1.000, Pending_hits = 0, Reservation_fails = 23437
	L1D_cache_core[79]: Access = 16454, Miss = 16454, Miss_rate = 1.000, Pending_hits = 0, Reservation_fails = 19829
	L1D_total_cache_accesses = 1330817
	L1D_total_cache_misses = 1330817
	L1D_total_cache_miss_rate = 1.0000
	L1D_total_cache_pending_hits = 0
	L1D_total_cache_reservation_fails = 1756729
	L1D_cache_data_port_util = 0.000
	L1D_cache_fill_port_util = 0.078
L1C_cache:
	L1C_total_cache_accesses = 0
	L1C_total_cache_misses = 0
	L1C_total_cache_pending_hits = 0
	L1C_total_cache_reservation_fails = 0
L1T_cache:
	L1T_total_cache_accesses = 0
	L1T_total_cache_misses = 0
	L1T_total_cache_pending_hits = 0
	L1T_total_cache_reservation_fails = 0

Total_core_cache_stats:
	Total_core_cache_stats_breakdown[GLOBAL_ACC_R][HIT] = 0
	Total_core_cache_stats_breakdown[GLOBAL_ACC_R][HIT_RESERVED] = 0
	Total_core_cache_stats_breakdown[GLOBAL_ACC_R][MISS] = 500296
	Total_core_cache_stats_breakdown[GLOBAL_ACC_R][RESERVATION_FAIL] = 839388
	Total_core_cache_stats_breakdown[GLOBAL_ACC_R][SECTOR_MISS] = 0
	Total_core_cache_stats_breakdown[LOCAL_ACC_R][HIT] = 0
	Total_core_cache_stats_breakdown[LOCAL_ACC_R][HIT_RESERVED] = 0
	Total_core_cache_stats_breakdown[LOCAL_ACC_R][MISS] = 0
	Total_core_cache_stats_breakdown[LOCAL_ACC_R][RESERVATION_FAIL] = 0
	Total_core_cache_stats_breakdown[LOCAL_ACC_R][SECTOR_MISS] = 0
	Total_core_cache_stats_breakdown[CONST_ACC_R][HIT] = 0
	Total_core_cache_stats_breakdown[CONST_ACC_R][HIT_RESERVED] = 0
	Total_core_cache_stats_breakdown[CONST_ACC_R][MISS] = 0
	Total_core_cache_stats_breakdown[CONST_ACC_R][RESERVATION_FAIL] = 0
	Total_core_cache_stats_breakdown[CONST_ACC_R][SECTOR_MISS] = 0
	Total_core_cache_stats_breakdown[TEXTURE_ACC_R][HIT] = 0
	Total_core_cache_stats_breakdown[TEXTURE_ACC_R][HIT_RESERVED] = 0
	Total_core_cache_stats_breakdown[TEXTURE_ACC_R][MISS] = 0
	Total_core_cache_stats_breakdown[TEXTURE_ACC_R][RESERVATION_FAIL] = 0
	Total_core_cache_stats_breakdown[TEXTURE_ACC_R][SECTOR_MISS] = 0
	Total_core_cache_stats_breakdown[GLOBAL_ACC_W][HIT] = 0
	Total_core_cache_stats_breakdown[GLOBAL_ACC_W][HIT_RESERVED] = 0
	Total_core_cache_stats_breakdown[GLOBAL_ACC_W][MISS] = 830521
	Total_core_cache_stats_breakdown[GLOBAL_ACC_W][RESERVATION_FAIL] = 917341
	Total_core_cache_stats_breakdown[GLOBAL_ACC_W][SECTOR_MISS] = 0
	Total_core_cache_stats_breakdown[LOCAL_ACC_W][HIT] = 0
	Total_core_cache_stats_breakdown[LOCAL_ACC_W][HIT_RESERVED] = 0
	Total_core_cache_stats_breakdown[LOCAL_ACC_W][MISS] = 0
	Total_core_cache_stats_breakdown[LOCAL_ACC_W][RESERVATION_FAIL] = 0
	Total_core_cache_stats_breakdown[LOCAL_ACC_W][SECTOR_MISS] = 0
	Total_core_cache_stats_breakdown[L1_WRBK_ACC][HIT] = 0
	Total_core_cache_stats_breakdown[L1_WRBK_ACC][HIT_RESERVED] = 0
	Total_core_cache_stats_breakdown[L1_WRBK_ACC][MISS] = 0
	Total_core_cache_stats_breakdown[L1_WRBK_ACC][RESERVATION_FAIL] = 0
	Total_core_cache_stats_breakdown[L1_WRBK_ACC][SECTOR_MISS] = 0
	Total_core_cache_stats_breakdown[L2_WRBK_ACC][HIT] = 0
	Total_core_cache_stats_breakdown[L2_WRBK_ACC][HIT_RESERVED] = 0
	Total_core_cache_stats_breakdown[L2_WRBK_ACC][MISS] = 0
	Total_core_cache_stats_breakdown[L2_WRBK_ACC][RESERVATION_FAIL] = 0
	Total_core_cache_stats_breakdown[L2_WRBK_ACC][SECTOR_MISS] = 0
	Total_core_cache_stats_breakdown[INST_ACC_R][HIT] = 0
	Total_core_cache_stats_breakdown[INST_ACC_R][HIT_RESERVED] = 0
	Total_core_cache_stats_breakdown[INST_ACC_R][MISS] = 0
	Total_core_cache_stats_breakdown[INST_ACC_R][RESERVATION_FAIL] = 0
	Total_core_cache_stats_breakdown[INST_ACC_R][SECTOR_MISS] = 0
	Total_core_cache_stats_breakdown[L1_WR_ALLOC_R][HIT] = 0
	Total_core_cache_stats_breakdown[L1_WR_ALLOC_R][HIT_RESERVED] = 0
	Total_core_cache_stats_breakdown[L1_WR_ALLOC_R][MISS] = 0
	Total_core_cache_stats_breakdown[L1_WR_ALLOC_R][RESERVATION_FAIL] = 0
	Total_core_cache_stats_breakdown[L1_WR_ALLOC_R][SECTOR_MISS] = 0
	Total_core_cache_stats_breakdown[L2_WR_ALLOC_R][HIT] = 0
	Total_core_cache_stats_breakdown[L2_WR_ALLOC_R][HIT_RESERVED] = 0
	Total_core_cache_stats_breakdown[L2_WR_ALLOC_R][MISS] = 0
	Total_core_cache_stats_breakdown[L2_WR_ALLOC_R][RESERVATION_FAIL] = 0
	Total_core_cache_stats_breakdown[L2_WR_ALLOC_R][SECTOR_MISS] = 0
	Total_core_cache_stats_breakdown[GLOBAL_ACC_R][TOTAL_ACCESS] = 500296
	Total_core_cache_stats_breakdown[GLOBAL_ACC_W][TOTAL_ACCESS] = 830521

Total_core_cache_fail_stats:
	Total_core_cache_fail_stats_breakdown[GLOBAL_ACC_R][MISS_QUEUE_FULL] = 839388
	Total_core_cache_fail_stats_breakdown[GLOBAL_ACC_W][MISS_QUEUE_FULL] = 917341
Shader 0 warp_id issue ditsribution:
warp_id:
0, 1, 2, 3, 4, 5, 6, 7, 8, 9, 10, 11, 12, 13, 14, 15, 16, 17, 18, 19, 20, 21, 22, 23, 24, 25, 26, 27, 28, 29, 30, 31, 32, 33, 34, 35, 
distro:
705, 677, 690, 689, 631, 627, 621, 624, 768, 699, 701, 719, 605, 561, 567, 577, 749, 689, 689, 709, 637, 627, 627, 647, 581, 531, 531, 541, 627, 627, 627, 635, 506, 533, 533, 523, 
gpgpu_n_tot_thrd_icount = 62040384
gpgpu_n_tot_w_icount = 1938762
gpgpu_n_stall_shd_mem = 5613934
gpgpu_n_mem_read_local = 0
gpgpu_n_mem_write_local = 0
gpgpu_n_mem_read_global = 500182
gpgpu_n_mem_write_global = 1729586
gpgpu_n_mem_texture = 0
gpgpu_n_mem_const = 0
gpgpu_n_load_insn  = 4004160
gpgpu_n_store_insn = 11488147
gpgpu_n_shmem_insn = 0
gpgpu_n_sstarr_insn = 0
gpgpu_n_tex_insn = 0
gpgpu_n_const_mem_insn = 0
gpgpu_n_param_mem_insn = 411776
gpgpu_n_shmem_bkconflict = 0
gpgpu_n_cache_bkconflict = 0
gpgpu_n_intrawarp_mshr_merge = 0
gpgpu_n_cmem_portconflict = 0
gpgpu_stall_shd_mem[c_mem][resource_stall] = 0
gpgpu_stall_shd_mem[s_mem][bk_conf] = 0
gpgpu_stall_shd_mem[gl_mem][resource_stall] = 2557716
gpgpu_stall_shd_mem[gl_mem][coal_stall] = 708402
gpgpu_stall_shd_mem[gl_mem][data_port_stall] = 0
gpu_reg_bank_conflict_stalls = 0
Warp Occupancy Distribution:
Stall:22205616	W0_Idle:401	W0_Scoreboard:666150	W1:58669	W2:0	W3:0	W4:0	W5:0	W6:0	W7:0	W8:0	W9:0	W10:0	W11:0	W12:0	W13:0	W14:0	W15:0	W16:0	W17:0	W18:0	W19:0	W20:0	W21:0	W22:0	W23:230882	W24:241891	W25:0	W26:0	W27:0	W28:0	W29:0	W30:0	W31:220007	W32:1193024
single_issue_nums: WS0:498033	WS1:478349	WS2:480897	WS3:487194	
dual_issue_nums: WS0:0	WS1:0	WS2:0	WS3:0	
traffic_breakdown_coretomem[GLOBAL_ACC_R] = 4001456 {8:500182,}
traffic_breakdown_coretomem[GLOBAL_ACC_W] = 40397520 {8:899560,40:830026,}
traffic_breakdown_memtocore[GLOBAL_ACC_R] = 19402320 {40:485058,}
traffic_breakdown_memtocore[GLOBAL_ACC_W] = 13467672 {8:1683459,}
maxmflatency = 9362 
max_icnt2mem_latency = 8156 
maxmrqlatency = 1891 
max_icnt2sh_latency = 701 
averagemflatency = 2286 
avg_icnt2mem_latency = 1787 
avg_mrq_latency = 170 
avg_icnt2sh_latency = 34 
mrq_lat_table:35505 	29631 	14790 	20936 	40473 	84994 	136293 	174530 	95858 	42596 	2538 	0 	0 	0 	0 	0 	0 	0 	0 	0 	0 	0 	0 	0 	0 	0 	0 	0 	0 	0 	0 	0 	
dq_lat_table:0 	0 	0 	0 	0 	0 	0 	0 	0 	0 	0 	0 	0 	0 	0 	0 	0 	0 	0 	0 	0 	0 	0 	0 	0 	0 	0 	0 	0 	0 	0 	0 	
mf_lat_table:0 	0 	0 	0 	0 	0 	0 	0 	1253 	97693 	1075956 	772082 	221241 	266 	0 	0 	0 	0 	0 	0 	0 	0 	0 	0 	0 	0 	0 	0 	0 	0 	0 	0 	
icnt2mem_lat_table:0 	0 	0 	0 	464 	1328 	6032 	15304 	2040 	485135 	1023847 	553505 	94347 	0 	0 	0 	0 	0 	0 	0 	0 	0 	0 	0 	
icnt2sh_lat_table:0 	983665 	286236 	224435 	191594 	169697 	140472 	101112 	69445 	1835 	0 	0 	0 	0 	0 	0 	0 	0 	0 	0 	0 	0 	0 	0 	
mf_lat_pw_table:0 	0 	0 	0 	0 	0 	0 	0 	0 	2 	34 	106 	12 	0 	0 	0 	0 	0 	0 	0 	0 	0 	0 	0 	0 	0 	0 	0 	0 	0 	0 	0 	
maximum concurrent accesses to same row:
dram[0]:        16        17        24        24        24        24        35        26        25        31        46        58        27        18        19        16 
dram[1]:        35        22        21        21        21        21        21        21        28        38        42        49        15        16        15        15 
dram[2]:        14        16        36        24        24        24        24        24        43        45        61        59        16        24        16        14 
dram[3]:        19        15        21        21        21        21        21        21        36        35        59        58        16        16        21        14 
dram[4]:        16        17        24        24        24        24        24        31        38        42        59        59        17        17        14        17 
dram[5]:        17         8        21        21        21        21        21        24        33        38        57        59        34        16        16        16 
dram[6]:        20        12        24        24        24        24        37        32        35        39        61        62        17        16        12        12 
dram[7]:        25        21        21        21        21        21        39        32        41        43        59        58        17        19        21        14 
dram[8]:        14        16        24        24        24        24        24        24        39        40        54        61        18        18        13        12 
dram[9]:        15        14        21        21        21        21        21        35        38        23        59        60        16        16        17        15 
dram[10]:        22        16        24        24        24        24        34        31        31        42        60        51        17        20        16        15 
dram[11]:        14        14        21        21        21        21        35        31        37        44        56        52        15        16        17        17 
dram[12]:        13        17        24        24        24        24        24        28        34        44        58        58        24        19        21        16 
dram[13]:        16        11        21        21        21        21        22        35        32        52        57        58        18        22        17        14 
dram[14]:        20        16        24        24        24        24        28        34        44        45        52        61        16        18        12        15 
dram[15]:        21        11        21        21        21        21        23        21        32        29        50        61        14        17        17        16 
dram[16]:        17        16        24        26        24        24        27        28        51        43        57        58        22        19        17        10 
dram[17]:        15        14        21        21        21        21        34        21        38        21        48        59        22        16        18        10 
dram[18]:        16        16        24        24        24        24        32        38        36        29        40        67        16        20        12        16 
dram[19]:        15        18        21        21        21        21        35        26        21        22        55        66        12        16        21        19 
dram[20]:        20        18        24        24        24        24        36        29        24        29        64        60        20        20        12        17 
dram[21]:        15        11        21        21        21        21        24        21        21        23        60        59        15        16        21        11 
dram[22]:        33        16        24        24        24        24        36        26        30        30        60        71        22        16        13        18 
dram[23]:        23        16        21        21        21        21        39        21        38        26        59        68        15        16        21        11 
dram[24]:        18        16        24        34        24        24        36        27        35        26        63        70        17        16        17         9 
dram[25]:        23        14        21        27        21        21        30        24        53        36        59        65        14        23        21        11 
dram[26]:        16        12        24        24        24        24        40        43        36        37        59        72        27        16        17        16 
dram[27]:        14        11        21        21        21        21        35        24        33        22        57        67        16        16        21        15 
dram[28]:        16        16        24        24        24        24        36        26        34        26        60        70        17        16        14        17 
dram[29]:        22        21        21        21        21        21        36        21        31        27        49        67        16        16        17        11 
dram[30]:        20        27        24        24        24        24        35        31        43        34        49        60        16        20        16        16 
dram[31]:        15        22        21        21        21        21        21        21        40        26        60        34        16        16        21        14 
maximum service time to same row:
dram[0]:     20118     14762     13053     13448      9373      9484      6302      6358      6730      6738      8403      8439     13007     13591     16618     16921 
dram[1]:     19113     15119     13250     12077      9865      6701      6120      6131      6444      6500      7946      7975     11848     12819     15087     15091 
dram[2]:     19724     14869     13077     13884     10629     10427      6302      6358      6730      7152      8403      8439     13007     13591     16588     16890 
dram[3]:     21237     14568     12416     13172     10345      6230      6120      6131      6444      6500      7946      7975     11848     12819     15096     15100 
dram[4]:     20667     14904     14053     13888      9505      7145      6302      6358      6730      6738      8403      8518     13007     13591     16626     16951 
dram[5]:     20780     15087     12947     12221     10135      9148      6546      6131      6444      6500      8087      7975     11848     12819     15583     15593 
dram[6]:     20681     14407     13471     14058      9153      9678      6302      6358      6730      6738      8403      8439     13007     13591     16570     16847 
dram[7]:     21068     14853     12028     12277     10406      5814      6120      6131      6444      6668      7946      7975     11848     12819     15562     15565 
dram[8]:     20736     14667     12821     13640      9172     12857      6302      6358      6730      6738      8403      8439     13007     13591     16715     16931 
dram[9]:     20820     14602     14177     12262     10207     10323      8565      6131      6444      6500      8147      7975     11848     12819     15079     15083 
dram[10]:     20665     14351     14043     14134      9340     11607      6302      6358      6730      6738      8403      8439     13007     13591     16818     16854 
dram[11]:     20085     14477     13495     11728      9636      6394      6120      6131      6444      6768      7946      7975     11848     12819     15541     15546 
dram[12]:     20303     14688     12681     13054     11143     12226     11261      6358      6730      6889      8403      8439     13007     13591     16626     16931 
dram[13]:     20863     15100     12768     12067     10049      9308      6120      6131      6444      6500      7946      7975     11848     12819     15071     15075 
dram[14]:     20349     14239     11918     13541     10492      9268      6302      6358      6730      6738      8403      8439     13007     13591     16509     16827 
dram[15]:     21426     14339     12476     12137      9103      6263      6120      6517      6444      6500      7946      8170     11848     12819     15591     15602 
dram[16]:     21104     13435     13314     13865      6858      5968      6302      6358      6730      6753      8403      8439     13007     13591     16650     16917 
dram[17]:     21385     14975     11727     12270      8433      5814      6120      6131      6444      6500      7946      7975     11848     12819     15532     15546 
dram[18]:     21560     14294     11874     13857     14495     10274      6302      6358      6730      6738      8403      8439     13007     13591     16594     16815 
dram[19]:     21133     14915     12139     12150      5787      5814      6120      6131      6444      6500      7946      7975     11848     12819     15562     15574 
dram[20]:     21129     14207     11743     14326      6103      5968      6302      6358      6730      6738      8403      8439     13007     13591     16600     16826 
dram[21]:     21001     14927     12042     12858      6103      5814      6120      6131      6444      6500      7946      7975     11848     12819     15603     15615 
dram[22]:     20154     14109     13639     13757      8013     13298      6302      6358      6730      6738      8403      8439     13007     13591     16572     16807 
dram[23]:     20217     14751     12753     12009      5787      7719      6120      6131      6444      6500      7946      8731     11848     12819     15583     15594 
dram[24]:     19849     14386     11815     13359     10416     11389      6302      6358      6730      6738      8403      9250     13007     13591     16538     16902 
dram[25]:     20534     14658     11994     12050      6018      9105      6120      6131      6444      6500      7946      8470     11848     12819     15681     15701 
dram[26]:     19619     14058     13483     13736      8670      8653      6302      6358      6730      6738      8403      8439     13007     13591     16518     16791 
dram[27]:     20530     15109     12328     12403      5787      5814      6120      6131      6444      6500      7946      8070     11848     12819     15577     15582 
dram[28]:     20154     14382     13125     14070      9970      9233      6302      6358      6730      6738      8403      8439     13007     13591     16573     16879 
dram[29]:     20646     14839     11938     12695     12869      5814      6120      6131      6444      6500      7946      9659     11848     12819     15679     15683 
dram[30]:     19712     14149     11753     14511      9927      9769      6302      6358      6730      6738      8403      8439     13007     13591     16668     16787 
dram[31]:     20542     15204     11833     11910      5787      7644      6120      6131      6444      6500      7946      7975     11848     12819     15575     15581 
average row accesses per activate:
dram[0]:  3.616488  3.738636  3.577586  3.669528  3.291228  3.199336  3.017857  3.100897  3.076125  3.162832  3.051864  3.091514  3.212177  3.311787  3.584158  3.588384 
dram[1]:  3.418605  3.529644  3.436937  3.340425  3.370656  3.187943  2.893518  3.016510  2.835664  2.834495  2.867450  2.853535  2.986768  2.984791  3.320611  3.437995 
dram[2]:  3.441270  3.756863  3.935185  3.537445  3.367273  3.217687  3.011111  3.196305  2.914614  3.051458  3.042414  2.977564  3.275281  3.375734  3.537500  3.625330 
dram[3]:  3.237654  3.421818  3.395833  3.261411  3.182482  3.221429  2.920561  2.868009  2.879219  2.943841  2.837479  2.793103  3.036329  2.981061  3.414322  3.436508 
dram[4]:  3.590476  3.667897  3.690377  3.510288  3.191275  3.193443  2.862869  3.064159  3.005111  3.130282  2.985600  3.076412  3.288136  3.173112  3.639098  3.750000 
dram[5]:  3.315789  3.192440  3.332000  3.308943  2.996644  3.108844  2.950472  2.935484  2.877224  2.912186  2.860738  2.874576  2.823529  2.891544  3.240964  3.360406 
dram[6]:  3.568690  3.665427  3.735683  3.828194  3.351254  3.483754  3.086560  3.201389  3.029060  3.154255  3.079602  3.004815  3.245810  3.297913  3.486683  3.574627 
dram[7]:  3.384615  3.339161  3.330612  3.593074  3.133333  3.377778  2.840909  2.926605  2.836237  2.998155  2.858824  3.007055  2.935185  2.877960  3.458763  3.490765 
dram[8]:  3.544304  3.682143  3.566667  3.677966  3.347670  3.240803  3.004435  3.103139  3.025554  2.899023  3.064250  3.128162  3.372816  3.382239  3.698210  3.635678 
dram[9]:  3.381703  3.216216  3.412956  3.398374  3.106164  3.229965  3.036319  3.042857  2.972628  2.946043  2.770226  2.838333  2.937153  2.949814  3.350617  3.348259 
dram[10]:  3.679739  3.706320  3.609244  3.792035  3.251724  3.332203  3.105505  3.138322  3.164286  3.171429  3.127731  3.266667  3.332054  3.521472  3.600496  3.652174 
dram[11]:  3.323077  3.166667  3.244094  3.307692  3.123288  3.226481  2.869266  2.976690  2.884547  2.938959  2.836667  2.965278  3.011385  2.994308  3.401002  3.356962 
dram[12]:  3.441718  3.831372  3.673640  3.747826  3.233108  3.356401  3.089041  3.226107  3.048276  3.132042  3.201377  3.079734  3.280075  3.277566  3.644110  3.658031 
dram[13]:  3.511864  3.444867  3.568282  3.539474  3.101045  3.160279  2.932084  3.035714  2.877442  2.900356  2.838063  2.944154  2.958879  2.981025  3.362025  3.469496 
dram[14]:  3.557692  3.654275  3.618644  3.768889  3.273356  3.334471  3.065611  3.070953  3.025597  3.127846  3.089256  3.118243  3.376699  3.330116  3.524155  3.635897 
dram[15]:  3.465753  3.405205  3.314894  3.302128  3.057762  3.155477  2.955083  2.908884  2.842105  2.834783  2.760196  2.871838  2.920223  2.967803  3.377892  3.448000 
dram[16]:  3.697987  3.756654  3.703390  4.013762  3.268041  3.434629  3.047191  3.273585  3.022184  3.083045  3.054276  3.203419  3.215867  3.449102  3.647643  3.528822 
dram[17]:  3.368421  3.321033  3.460177  3.452586  3.266667  3.147368  2.985748  2.969838  2.834495  2.836522  2.788177  2.917808  2.949248  2.949152  3.281330  3.232911 
dram[18]:  3.565068  3.610909  3.443089  3.658009  3.424028  3.305085  3.040268  3.149660  3.046392  3.095486  3.124161  3.077303  3.203704  3.323136  3.610000  3.676093 
dram[19]:  3.259386  3.155709  3.269710  3.222222  3.146342  3.000000  2.889401  2.863839  2.816291  2.846690  2.852349  2.916667  2.839060  2.924074  3.281407  3.352185 
dram[20]:  3.648746  3.587591  3.526316  3.683036  3.200000  3.395189  3.131336  3.135440  3.015306  3.066895  3.127731  3.128978  3.275992  3.401980  3.628499  3.730159 
dram[21]:  3.378092  3.293286  3.353909  3.362869  3.142361  3.216028  2.948357  2.970046  2.858907  2.914894  2.938038  2.951473  2.909427  2.945076  3.414508  3.334171 
dram[22]:  3.684588  3.778195  3.652720  3.866667  3.392226  3.320000  3.076749  3.164009  2.964942  3.098446  3.206540  3.225473  3.133333  3.387795  3.693671  3.739691 
dram[23]:  3.405205  3.400722  3.568282  3.352941  3.202847  3.237589  2.953052  2.974537  2.739057  2.865620  2.850671  2.914676  2.967985  3.100394  3.490862  3.332487 
dram[24]:  3.553191  3.619048  3.570248  3.849558  3.392226  3.163399  3.044843  3.168950  3.112084  3.095156  3.249564  3.037217  3.153986  3.307985  3.503597  3.668367 
dram[25]:  3.326241  3.166090  3.385281  3.365957  3.000000  3.132404  2.952941  2.922374  2.859402  2.862129  2.929553  2.874791  2.865210  2.975425  3.256158  3.412073 
dram[26]:  3.628159  3.607914  3.522822  3.756522  3.447654  3.320690  3.077097  3.147392  2.978225  3.075601  3.120805  3.112211  3.320537  3.385519  3.779528  3.606138 
dram[27]:  3.341912  3.224914  3.318367  3.392405  3.132867  3.241993  3.041262  2.904762  2.880995  2.891844  2.949477  2.849587  2.900735  2.986667  3.395833  3.400524 
dram[28]:  3.782772  3.802974  3.668067  3.641975  3.433099  3.456446  3.070136  3.154546  3.051724  3.070326  3.170940  3.175676  3.317491  3.337209  3.720102  3.778947 
dram[29]:  3.412409  3.423913  3.136719  3.330579  3.092783  3.141379  3.000000  2.972158  2.838261  2.983577  2.982425  2.970383  2.892139  3.077973  3.350126  3.301507 
dram[30]:  3.624114  3.650735  3.526316  3.523013  3.408602  3.344948  3.098174  3.232558  3.070812  3.140845  3.068965  3.219723  3.230056  3.401575  3.690537  3.613232 
dram[31]:  3.344086  3.313167  3.385892  3.243902  3.169611  3.223022  2.891705  2.915909  2.783277  2.838821  2.779772  2.918228  2.990548  3.128257  3.458115  3.449468 
average row locality = 678144/213458 = 3.176944
number of total memory accesses made:
dram[0]:         0         0         0         0         0         0         0         0         0         0         0         0         0         0         0         0 
dram[1]:         0         0         0         0         0         0         0         0         0         0         0         0         0         0         0         0 
dram[2]:         0         0         0         0         0         0         0         0         0         0         0         0         0         0         0         0 
dram[3]:         0         0         0         0         0         0         0         0         0         0         0         0         0         0         0         0 
dram[4]:         0         0         0         0         0         0         0         0         0         0         0         0         0         0         0         0 
dram[5]:         0         0         0         0         0         0         0         0         0         0         0         0         0         0         0         0 
dram[6]:         0         0         0         0         0         0         0         0         0         0         0         0         0         0         0         0 
dram[7]:         0         0         0         0         0         0         0         0         0         0         0         0         0         0         0         0 
dram[8]:         0         0         0         0         0         0         0         0         0         0         0         0         0         0         0         0 
dram[9]:         0         0         0         0         0         0         0         0         0         0         0         0         0         0         0         0 
[...]
total_req = 34951 

Dual Bus Interface Util: 
issued_total_row = 13193 
issued_total_col = 34951 
Row_Bus_Util =  0.212835 
CoL_Bus_Util = 0.563844 
Either_Row_CoL_Bus_Util = 0.647636 
Issued_on_Two_Bus_Simul_Util = 0.129043 
issued_two_Eff = 0.199253 
queue_avg = 40.820187 


dram_util_bins: 0 0 0 0 0 0 0 0 0 0
dram_eff_bins: 0 0 0 0 0 0 0 0 0 0
mrqq: max=64 avg=40.8202
Memory Partition 28: 
Cache L2_bank_056:

Cache L2_bank_057:

In Dram Latency Queue (total = 180): 
DRAM[28]: 16 bks, busW=16 BL=2 CL=12, tRRD=3 tCCD=1, tRCD=12 tRAS=28 tRP=12 tRC=40
n_cmd=61987 n_nop=20202 n_act=6620 n_pre=6606 n_ref_event=0 n_req=22227 n_rd=16228 n_rd_L2_A=0 n_write=0 n_wr_bk=20613 bw_util=0.5943
n_activity=56173 dram_eff=0.6558
bk0: 840a 46788i bk1: 832a 45054i bk2: 716a 48904i bk3: 708a 47830i bk4: 708a 46622i bk5: 716a 45303i bk6: 896a 36664i bk7: 920a 35565i bk8: 1216a 28505i bk9: 1224a 26134i bk10: 1280a 24518i bk11: 1280a 22584i bk12: 1280a 28616i bk13: 1280a 27733i bk14: 1176a 36448i bk15: 1156a 36985i 

------------------------------------------------------------------------

Row_Buffer_Locality = 0.701078
Row_Buffer_Locality_read = 0.814872
Row_Buffer_Locality_write = 0.389648
Bank_Level_Parallism = 7.759499
Bank_Level_Parallism_Col = 5.354165
Bank_Level_Parallism_Ready = 2.064059
write_to_read_ratio_blp_rw_average = 0.536136
GrpLevelPara = 3.225972 

BW Util details:
bwutil = 0.594334 
total_CMD = 61987 
util_bw = 36841 
Wasted_Col = 17311 
Wasted_Row = 1224 
Idle = 6611 

BW Util Bottlenecks: 
RCDc_limit = 13358 
RCDWRc_limit = 11566 
WTRc_limit = 13528 
RTWc_limit = 43753 
CCDLc_limit = 13756 
rwq = 0 
CCDLc_limit_alone = 8896 
WTRc_limit_alone = 12057 
RTWc_limit_alone = 40364 

Commands details: 
total_CMD = 61987 
n_nop = 20202 
Read = 16228 
Write = 0 
L2_Alloc = 0 
L2_WB = 20613 
n_act = 6620 
n_pre = 6606 
n_ref = 0 
n_req = 22227 
total_req = 36841 

Dual Bus Interface Util: 
issued_total_row = 13226 
issued_total_col = 36841 
Row_Bus_Util =  0.213367 
CoL_Bus_Util = 0.594334 
Either_Row_CoL_Bus_Util = 0.674093 
Issued_on_Two_Bus_Simul_Util = 0.133609 
issued_two_Eff = 0.198205 
queue_avg = 47.423332 


dram_util_bins: 0 0 0 0 0 0 0 0 0 0
dram_eff_bins: 0 0 0 0 0 0 0 0 0 0
mrqq: max=64 avg=47.4233
Memory Partition 29: 
Cache L2_bank_058:

Cache L2_bank_059:

In Dram Latency Queue (total = 175): 
DRAM[29]: 16 bks, busW=16 BL=2 CL=12, tRRD=3 tCCD=1, tRCD=12 tRAS=28 tRP=12 tRC=40
n_cmd=61987 n_nop=21751 n_act=6598 n_pre=6583 n_ref_event=0 n_req=20373 n_rd=14336 n_rd_L2_A=0 n_write=0 n_wr_bk=20684 bw_util=0.565
n_activity=55690 dram_eff=0.6288
bk0: 750a 45311i bk1: 756a 45331i bk2: 645a 47522i bk3: 630a 48067i bk4: 630a 46189i bk5: 637a 46172i bk6: 784a 37936i bk7: 805a 37478i bk8: 1064a 28657i bk9: 1071a 29146i bk10: 1120a 28497i bk11: 1120a 26255i bk12: 1120a 28537i bk13: 1120a 30138i bk14: 1054a 36398i bk15: 1030a 38006i 

------------------------------------------------------------------------

Row_Buffer_Locality = 0.675070
Row_Buffer_Locality_read = 0.805552
Row_Buffer_Locality_write = 0.361748
Bank_Level_Parallism = 7.537913
Bank_Level_Parallism_Col = 5.182993
Bank_Level_Parallism_Ready = 2.031096
write_to_read_ratio_blp_rw_average = 0.561383
GrpLevelPara = 3.090764 

BW Util details:
bwutil = 0.564957 
total_CMD = 61987 
util_bw = 35020 
Wasted_Col = 17777 
Wasted_Row = 1920 
Idle = 7270 

BW Util Bottlenecks: 
RCDc_limit = 12076 
RCDWRc_limit = 13174 
WTRc_limit = 13961 
RTWc_limit = 37974 
CCDLc_limit = 13767 
rwq = 0 
CCDLc_limit_alone = 9184 
WTRc_limit_alone = 12279 
RTWc_limit_alone = 35073 

Commands details: 
total_CMD = 61987 
n_nop = 21751 
Read = 14336 
Write = 0 
L2_Alloc = 0 
L2_WB = 20684 
n_act = 6598 
n_pre = 6583 
n_ref = 0 
n_req = 20373 
total_req = 35020 

Dual Bus Interface Util: 
issued_total_row = 13181 
issued_total_col = 35020 
Row_Bus_Util =  0.212641 
CoL_Bus_Util = 0.564957 
Either_Row_CoL_Bus_Util = 0.649104 
Issued_on_Two_Bus_Simul_Util = 0.128495 
issued_two_Eff = 0.197957 
queue_avg = 39.567814 


dram_util_bins: 0 0 0 0 0 0 0 0 0 0
dram_eff_bins: 0 0 0 0 0 0 0 0 0 0
mrqq: max=64 avg=39.5678
Memory Partition 30: 
Cache L2_bank_060:

Cache L2_bank_061:

In Dram Latency Queue (total = 175): 
DRAM[30]: 16 bks, busW=16 BL=2 CL=12, tRRD=3 tCCD=1, tRCD=12 tRAS=28 tRP=12 tRC=40
n_cmd=61987 n_nop=20190 n_act=6637 n_pre=6622 n_ref_event=0 n_req=22074 n_rd=16036 n_rd_L2_A=0 n_write=0 n_wr_bk=20768 bw_util=0.5937
n_activity=56311 dram_eff=0.6536
bk0: 824a 45192i bk1: 812a 45296i bk2: 692a 48951i bk3: 680a 49165i bk4: 680a 46746i bk5: 684a 46022i bk6: 896a 37089i bk7: 920a 37258i bk8: 1216a 28267i bk9: 1224a 27264i bk10: 1280a 24911i bk11: 1280a 25851i bk12: 1280a 28676i bk13: 1280a 29050i bk14: 1148a 37264i bk15: 1140a 36002i 

------------------------------------------------------------------------

Row_Buffer_Locality = 0.698364
Row_Buffer_Locality_read = 0.813704
Row_Buffer_Locality_write = 0.388545
Bank_Level_Parallism = 7.567929
Bank_Level_Parallism_Col = 5.208697
Bank_Level_Parallism_Ready = 2.059749
write_to_read_ratio_blp_rw_average = 0.536573
GrpLevelPara = 3.191418 

BW Util details:
bwutil = 0.593737 
total_CMD = 61987 
util_bw = 36804 
Wasted_Col = 17246 
Wasted_Row = 1552 
Idle = 6385 

BW Util Bottlenecks: 
RCDc_limit = 12826 
RCDWRc_limit = 11777 
WTRc_limit = 13882 
RTWc_limit = 40682 
CCDLc_limit = 13206 
rwq = 0 
CCDLc_limit_alone = 8704 
WTRc_limit_alone = 12369 
RTWc_limit_alone = 37693 

Commands details: 
total_CMD = 61987 
n_nop = 20190 
Read = 16036 
Write = 0 
L2_Alloc = 0 
L2_WB = 20768 
n_act = 6637 
n_pre = 6622 
n_ref = 0 
n_req = 22074 
total_req = 36804 

Dual Bus Interface Util: 
issued_total_row = 13259 
issued_total_col = 36804 
Row_Bus_Util =  0.213900 
CoL_Bus_Util = 0.593737 
Either_Row_CoL_Bus_Util = 0.674287 
Issued_on_Two_Bus_Simul_Util = 0.133351 
issued_two_Eff = 0.197765 
queue_avg = 45.672657 


dram_util_bins: 0 0 0 0 0 0 0 0 0 0
dram_eff_bins: 0 0 0 0 0 0 0 0 0 0
mrqq: max=64 avg=45.6727
Memory Partition 31: 
Cache L2_bank_062:

Cache L2_bank_063:

In Dram Latency Queue (total = 123): 
DRAM[31]: 16 bks, busW=16 BL=2 CL=12, tRRD=3 tCCD=1, tRCD=12 tRAS=28 tRP=12 tRC=40
n_cmd=61987 n_nop=21621 n_act=6628 n_pre=6614 n_ref_event=0 n_req=20320 n_rd=14248 n_rd_L2_A=0 n_write=0 n_wr_bk=20799 bw_util=0.5654
n_activity=56340 dram_eff=0.6221
bk0: 737a 43667i bk1: 741a 44627i bk2: 639a 48156i bk3: 636a 48027i bk4: 624a 46668i bk5: 620a 45459i bk6: 784a 37122i bk7: 805a 36545i bk8: 1064a 29314i bk9: 1071a 28506i bk10: 1120a 25937i bk11: 1120a 25442i bk12: 1120a 29112i bk13: 1120a 30679i bk14: 1030a 37377i bk15: 1017a 36919i 

------------------------------------------------------------------------

Row_Buffer_Locality = 0.672640
Row_Buffer_Locality_read = 0.800393
Row_Buffer_Locality_write = 0.369315
Bank_Level_Parallism = 7.526872
Bank_Level_Parallism_Col = 5.228174
Bank_Level_Parallism_Ready = 2.057380
write_to_read_ratio_blp_rw_average = 0.557954
GrpLevelPara = 3.104419 

BW Util details:
bwutil = 0.565393 
total_CMD = 61987 
util_bw = 35047 
Wasted_Col = 18314 
Wasted_Row = 2237 
Idle = 6389 

BW Util Bottlenecks: 
RCDc_limit = 12976 
RCDWRc_limit = 13154 
WTRc_limit = 14688 
RTWc_limit = 40593 
CCDLc_limit = 13960 
rwq = 0 
CCDLc_limit_alone = 9160 
WTRc_limit_alone = 12941 
RTWc_limit_alone = 37540 

Commands details: 
total_CMD = 61987 
n_nop = 21621 
Read = 14248 
Write = 0 
L2_Alloc = 0 
L2_WB = 20799 
n_act = 6628 
n_pre = 6614 
n_ref = 0 
n_req = 20320 
total_req = 35047 

Dual Bus Interface Util: 
issued_total_row = 13242 
issued_total_col = 35047 
Row_Bus_Util =  0.213625 
CoL_Bus_Util = 0.565393 
Either_Row_CoL_Bus_Util = 0.651201 
Issued_on_Two_Bus_Simul_Util = 0.127817 
issued_two_Eff = 0.196279 
queue_avg = 40.763660 


dram_util_bins: 0 0 0 0 0 0 0 0 0 0
dram_eff_bins: 0 0 0 0 0 0 0 0 0 0
mrqq: max=64 avg=40.7637

========= L2 cache stats =========
L2_cache_bank[0]: Access = 34415, Miss = 21220, Miss_rate = 0.617, Pending_hits = 0, Reservation_fails = 0
L2_cache_bank[1]: Access = 34758, Miss = 21286, Miss_rate = 0.612, Pending_hits = 0, Reservation_fails = 0
L2_cache_bank[2]: Access = 33430, Miss = 20124, Miss_rate = 0.602, Pending_hits = 0, Reservation_fails = 0
L2_cache_bank[3]: Access = 33313, Miss = 20056, Miss_rate = 0.602, Pending_hits = 0, Reservation_fails = 0
L2_cache_bank[4]: Access = 34446, Miss = 21134, Miss_rate = 0.614, Pending_hits = 0, Reservation_fails = 0
L2_cache_bank[5]: Access = 33346, Miss = 20884, Miss_rate = 0.626, Pending_hits = 0, Reservation_fails = 0
L2_cache_bank[6]: Access = 33790, Miss = 20216, Miss_rate = 0.598, Pending_hits = 0, Reservation_fails = 0
L2_cache_bank[7]: Access = 33266, Miss = 20087, Miss_rate = 0.604, Pending_hits = 0, Reservation_fails = 0
L2_cache_bank[8]: Access = 34579, Miss = 21401, Miss_rate = 0.619, Pending_hits = 0, Reservation_fails = 0
L2_cache_bank[9]: Access = 34165, Miss = 21118, Miss_rate = 0.618, Pending_hits = 0, Reservation_fails = 6
L2_cache_bank[10]: Access = 33777, Miss = 20202, Miss_rate = 0.598, Pending_hits = 0, Reservation_fails = 0
L2_cache_bank[11]: Access = 33521, Miss = 20123, Miss_rate = 0.600, Pending_hits = 0, Reservation_fails = 0
L2_cache_bank[12]: Access = 34525, Miss = 21284, Miss_rate = 0.616, Pending_hits = 0, Reservation_fails = 0
L2_cache_bank[13]: Access = 34779, Miss = 21310, Miss_rate = 0.613, Pending_hits = 0, Reservation_fails = 0
L2_cache_bank[14]: Access = 33781, Miss = 20329, Miss_rate = 0.602, Pending_hits = 0, Reservation_fails = 0
L2_cache_bank[15]: Access = 34266, Miss = 20327, Miss_rate = 0.593, Pending_hits = 0, Reservation_fails = 9
L2_cache_bank[16]: Access = 34904, Miss = 21428, Miss_rate = 0.614, Pending_hits = 0, Reservation_fails = 0
L2_cache_bank[17]: Access = 35308, Miss = 21522, Miss_rate = 0.610, Pending_hits = 0, Reservation_fails = 10
L2_cache_bank[18]: Access = 34043, Miss = 20381, Miss_rate = 0.599, Pending_hits = 0, Reservation_fails = 4
L2_cache_bank[19]: Access = 33884, Miss = 20346, Miss_rate = 0.600, Pending_hits = 0, Reservation_fails = 0
L2_cache_bank[20]: Access = 34270, Miss = 21182, Miss_rate = 0.618, Pending_hits = 0, Reservation_fails = 0
L2_cache_bank[21]: Access = 34538, Miss = 21325, Miss_rate = 0.617, Pending_hits = 0, Reservation_fails = 9
L2_cache_bank[22]: Access = 33657, Miss = 20444, Miss_rate = 0.607, Pending_hits = 0, Reservation_fails = 0
L2_cache_bank[23]: Access = 33777, Miss = 20312, Miss_rate = 0.601, Pending_hits = 0, Reservation_fails = 0
L2_cache_bank[24]: Access = 35274, Miss = 21601, Miss_rate = 0.612, Pending_hits = 0, Reservation_fails = 30
L2_cache_bank[25]: Access = 34554, Miss = 21177, Miss_rate = 0.613, Pending_hits = 0, Reservation_fails = 8
L2_cache_bank[26]: Access = 34223, Miss = 20362, Miss_rate = 0.595, Pending_hits = 0, Reservation_fails = 87
L2_cache_bank[27]: Access = 33665, Miss = 20101, Miss_rate = 0.597, Pending_hits = 0, Reservation_fails = 0
L2_cache_bank[28]: Access = 35015, Miss = 21484, Miss_rate = 0.614, Pending_hits = 0, Reservation_fails = 0
L2_cache_bank[29]: Access = 34121, Miss = 21111, Miss_rate = 0.619, Pending_hits = 0, Reservation_fails = 0
L2_cache_bank[30]: Access = 33109, Miss = 20101, Miss_rate = 0.607, Pending_hits = 0, Reservation_fails = 0
L2_cache_bank[31]: Access = 33204, Miss = 19915, Miss_rate = 0.600, Pending_hits = 0, Reservation_fails = 0
L2_cache_bank[32]: Access = 34431, Miss = 21365, Miss_rate = 0.621, Pending_hits = 0, Reservation_fails = 0
L2_cache_bank[33]: Access = 35142, Miss = 21331, Miss_rate = 0.607, Pending_hits = 0, Reservation_fails = 0
L2_cache_bank[34]: Access = 33484, Miss = 20145, Miss_rate = 0.602, Pending_hits = 0, Reservation_fails = 0
L2_cache_bank[35]: Access = 33928, Miss = 20180, Miss_rate = 0.595, Pending_hits = 0, Reservation_fails = 0
L2_cache_bank[36]: Access = 33574, Miss = 21028, Miss_rate = 0.626, Pending_hits = 0, Reservation_fails = 0
L2_cache_bank[37]: Access = 33925, Miss = 21234, Miss_rate = 0.626, Pending_hits = 0, Reservation_fails = 0
L2_cache_bank[38]: Access = 32595, Miss = 19965, Miss_rate = 0.613, Pending_hits = 0, Reservation_fails = 43
L2_cache_bank[39]: Access = 32860, Miss = 20049, Miss_rate = 0.610, Pending_hits = 0, Reservation_fails = 0
L2_cache_bank[40]: Access = 34092, Miss = 21298, Miss_rate = 0.625, Pending_hits = 0, Reservation_fails = 0
L2_cache_bank[41]: Access = 33916, Miss = 21082, Miss_rate = 0.622, Pending_hits = 0, Reservation_fails = 0
L2_cache_bank[42]: Access = 32905, Miss = 20091, Miss_rate = 0.611, Pending_hits = 0, Reservation_fails = 0
L2_cache_bank[43]: Access = 33020, Miss = 20160, Miss_rate = 0.611, Pending_hits = 0, Reservation_fails = 0
L2_cache_bank[44]: Access = 34430, Miss = 21313, Miss_rate = 0.619, Pending_hits = 0, Reservation_fails = 0
L2_cache_bank[45]: Access = 34328, Miss = 21360, Miss_rate = 0.622, Pending_hits = 0, Reservation_fails = 0
L2_cache_bank[46]: Access = 33351, Miss = 20170, Miss_rate = 0.605, Pending_hits = 0, Reservation_fails = 0
L2_cache_bank[47]: Access = 33731, Miss = 20242, Miss_rate = 0.600, Pending_hits = 0, Reservation_fails = 0
L2_cache_bank[48]: Access = 34082, Miss = 21258, Miss_rate = 0.624, Pending_hits = 0, Reservation_fails = 0
L2_cache_bank[49]: Access = 35317, Miss = 21457, Miss_rate = 0.608, Pending_hits = 0, Reservation_fails = 0
L2_cache_bank[50]: Access = 33653, Miss = 20143, Miss_rate = 0.599, Pending_hits = 0, Reservation_fails = 0
L2_cache_bank[51]: Access = 34045, Miss = 20376, Miss_rate = 0.599, Pending_hits = 0, Reservation_fails = 0
L2_cache_bank[52]: Access = 34721, Miss = 21337, Miss_rate = 0.615, Pending_hits = 0, Reservation_fails = 0
L2_cache_bank[53]: Access = 35216, Miss = 21421, Miss_rate = 0.608, Pending_hits = 0, Reservation_fails = 0
L2_cache_bank[54]: Access = 33145, Miss = 19992, Miss_rate = 0.603, Pending_hits = 0, Reservation_fails = 0
L2_cache_bank[55]: Access = 33775, Miss = 20235, Miss_rate = 0.599, Pending_hits = 0, Reservation_fails = 0
L2_cache_bank[56]: Access = 33939, Miss = 21187, Miss_rate = 0.624, Pending_hits = 0, Reservation_fails = 0
L2_cache_bank[57]: Access = 34660, Miss = 21308, Miss_rate = 0.615, Pending_hits = 0, Reservation_fails = 12
L2_cache_bank[58]: Access = 33030, Miss = 20138, Miss_rate = 0.610, Pending_hits = 0, Reservation_fails = 0
L2_cache_bank[59]: Access = 33465, Miss = 20246, Miss_rate = 0.605, Pending_hits = 0, Reservation_fails = 248
L2_cache_bank[60]: Access = 34800, Miss = 21332, Miss_rate = 0.613, Pending_hits = 0, Reservation_fails = 0
L2_cache_bank[61]: Access = 34145, Miss = 21211, Miss_rate = 0.621, Pending_hits = 0, Reservation_fails = 22
L2_cache_bank[62]: Access = 33734, Miss = 20290, Miss_rate = 0.601, Pending_hits = 0, Reservation_fails = 0
L2_cache_bank[63]: Access = 33503, Miss = 20168, Miss_rate = 0.602, Pending_hits = 0, Reservation_fails = 0
L2_total_cache_accesses = 2176645
L2_total_cache_misses = 1327005
L2_total_cache_miss_rate = 0.6097
L2_total_cache_pending_hits = 0
L2_total_cache_reservation_fails = 488
L2_total_cache_breakdown:
	L2_cache_stats_breakdown[GLOBAL_ACC_R][HIT] = 0
	L2_cache_stats_breakdown[GLOBAL_ACC_R][HIT_RESERVED] = 0
	L2_cache_stats_breakdown[GLOBAL_ACC_R][MISS] = 131313
	L2_cache_stats_breakdown[GLOBAL_ACC_R][RESERVATION_FAIL] = 488
	L2_cache_stats_breakdown[GLOBAL_ACC_R][SECTOR_MISS] = 360918
	L2_cache_stats_breakdown[LOCAL_ACC_R][HIT] = 0
	L2_cache_stats_breakdown[LOCAL_ACC_R][HIT_RESERVED] = 0
	L2_cache_stats_breakdown[LOCAL_ACC_R][MISS] = 0
	L2_cache_stats_breakdown[LOCAL_ACC_R][RESERVATION_FAIL] = 0
	L2_cache_stats_breakdown[LOCAL_ACC_R][SECTOR_MISS] = 0
	L2_cache_stats_breakdown[CONST_ACC_R][HIT] = 0
	L2_cache_stats_breakdown[CONST_ACC_R][HIT_RESERVED] = 0
	L2_cache_stats_breakdown[CONST_ACC_R][MISS] = 0
	L2_cache_stats_breakdown[CONST_ACC_R][RESERVATION_FAIL] = 0
	L2_cache_stats_breakdown[CONST_ACC_R][SECTOR_MISS] = 0
	L2_cache_stats_breakdown[TEXTURE_ACC_R][HIT] = 0
	L2_cache_stats_breakdown[TEXTURE_ACC_R][HIT_RESERVED] = 0
	L2_cache_stats_breakdown[TEXTURE_ACC_R][MISS] = 0
	L2_cache_stats_breakdown[TEXTURE_ACC_R][RESERVATION_FAIL] = 0
	L2_cache_stats_breakdown[TEXTURE_ACC_R][SECTOR_MISS] = 0
	L2_cache_stats_breakdown[GLOBAL_ACC_W][HIT] = 849640
	L2_cache_stats_breakdown[GLOBAL_ACC_W][HIT_RESERVED] = 0
	L2_cache_stats_breakdown[GLOBAL_ACC_W][MISS] = 199649
	L2_cache_stats_breakdown[GLOBAL_ACC_W][RESERVATION_FAIL] = 0
	L2_cache_stats_breakdown[GLOBAL_ACC_W][SECTOR_MISS] = 635125
	L2_cache_stats_breakdown[LOCAL_ACC_W][HIT] = 0
	L2_cache_stats_breakdown[LOCAL_ACC_W][HIT_RESERVED] = 0
	L2_cache_stats_breakdown[LOCAL_ACC_W][MISS] = 0
	L2_cache_stats_breakdown[LOCAL_ACC_W][RESERVATION_FAIL] = 0
	L2_cache_stats_breakdown[LOCAL_ACC_W][SECTOR_MISS] = 0
	L2_cache_stats_breakdown[L1_WRBK_ACC][HIT] = 0
	L2_cache_stats_breakdown[L1_WRBK_ACC][HIT_RESERVED] = 0
	L2_cache_stats_breakdown[L1_WRBK_ACC][MISS] = 0
	L2_cache_stats_breakdown[L1_WRBK_ACC][RESERVATION_FAIL] = 0
	L2_cache_stats_breakdown[L1_WRBK_ACC][SECTOR_MISS] = 0
	L2_cache_stats_breakdown[L2_WRBK_ACC][HIT] = 0
	L2_cache_stats_breakdown[L2_WRBK_ACC][HIT_RESERVED] = 0
	L2_cache_stats_breakdown[L2_WRBK_ACC][MISS] = 0
	L2_cache_stats_breakdown[L2_WRBK_ACC][RESERVATION_FAIL] = 0
	L2_cache_stats_breakdown[L2_WRBK_ACC][SECTOR_MISS] = 0
	L2_cache_stats_breakdown[INST_ACC_R][HIT] = 0
	L2_cache_stats_breakdown[INST_ACC_R][HIT_RESERVED] = 0
	L2_cache_stats_breakdown[INST_ACC_R][MISS] = 0
	L2_cache_stats_breakdown[INST_ACC_R][RESERVATION_FAIL] = 0
	L2_cache_stats_breakdown[INST_ACC_R][SECTOR_MISS] = 0
	L2_cache_stats_breakdown[L1_WR_ALLOC_R][HIT] = 0
	L2_cache_stats_breakdown[L1_WR_ALLOC_R][HIT_RESERVED] = 0
	L2_cache_stats_breakdown[L1_WR_ALLOC_R][MISS] = 0
	L2_cache_stats_breakdown[L1_WR_ALLOC_R][RESERVATION_FAIL] = 0
	L2_cache_stats_breakdown[L1_WR_ALLOC_R][SECTOR_MISS] = 0
	L2_cache_stats_breakdown[L2_WR_ALLOC_R][HIT] = 0
	L2_cache_stats_breakdown[L2_WR_ALLOC_R][HIT_RESERVED] = 0
	L2_cache_stats_breakdown[L2_WR_ALLOC_R][MISS] = 0
	L2_cache_stats_breakdown[L2_WR_ALLOC_R][RESERVATION_FAIL] = 0
	L2_cache_stats_breakdown[L2_WR_ALLOC_R][SECTOR_MISS] = 0
	L2_cache_stats_breakdown[GLOBAL_ACC_R][TOTAL_ACCESS] = 492231
	L2_cache_stats_breakdown[GLOBAL_ACC_W][TOTAL_ACCESS] = 1684414
L2_total_cache_reservation_fail_breakdown:
	L2_cache_stats_fail_breakdown[GLOBAL_ACC_R][MSHR_ENRTY_FAIL] = 488
L2_cache_data_port_util = 0.242
L2_cache_fill_port_util = 0.092

icnt_total_pkts_mem_to_simt=2168517
icnt_total_pkts_simt_to_mem=2229768
LD_mem_lat_dist  0 0 0 0 0 0 0 0 0 0 0 0 0 0 0 0 0 0 0 0 0 0 0 0 0 0 0
ST_mem_lat_dist  0 0 0 0 0 0 0 0 0 0 0 0 0 0 0 0 0 0 0 0 0 0 0 0 0 0 0
----------------------------Interconnect-DETAILS--------------------------------
Req_Network_injected_packets_num = 2229768
Req_Network_cycles = 82553
Req_Network_injected_packets_per_cycle =      27.0101 
Req_Network_conflicts_per_cycle =      46.9147
Req_Network_conflicts_per_cycle_util =      50.0452
Req_Bank_Level_Parallism =      28.2842
Req_Network_in_buffer_full_per_cycle =      59.6387
Req_Network_in_buffer_avg_util =     474.1197
Req_Network_out_buffer_full_per_cycle =       3.5459
Req_Network_out_buffer_avg_util =     133.0428

Reply_Network_injected_packets_num = 2169609
Reply_Network_cycles = 82553
Reply_Network_injected_packets_per_cycle =       26.2814
Reply_Network_conflicts_per_cycle =       11.9072
Reply_Network_conflicts_per_cycle_util =      13.1184
Reply_Bank_Level_Parallism =      28.9405
Reply_Network_in_buffer_full_per_cycle =       0.0000
Reply_Network_in_buffer_avg_util =      13.2458
Reply_Network_out_buffer_full_per_cycle =       0.0000
Reply_Network_out_buffer_avg_util =       0.3284
----------------------------END-of-Interconnect-DETAILS-------------------------


gpgpu_simulation_time = 0 days, 0 hrs, 11 min, 25 sec (685 sec)
gpgpu_simulation_rate = 81499 (inst/sec)
gpgpu_simulation_rate = 120 (cycle/sec)
gpgpu_silicon_slowdown = 9433333x
GPGPU-Sim: *** simulation thread exiting ***
GPGPU-Sim: ** break due to reaching the maximum cycles (or instructions) **
GPGPU-Sim: *** exit detected ***
