

        *** GPGPU-Sim Simulator Version 4.0.0  [build gpgpu-sim_git-commit-ffe0a1a00e984ecce9bf36e17ab94c4de0de8108_modified_0.0] ***


GPGPU-Sim PTX: simulation mode 0 (can change with PTX_SIM_MODE_FUNC environment variable:
               1=functional simulation only, 0=detailed performance simulator)
GPGPU-Sim PTX: overriding embedded ptx with ptx file (PTX_SIM_USE_PTX_FILE is set)
GPGPU-Sim: Configuration options:

-save_embedded_ptx                      0 # saves ptx files embedded in binary as <n>.ptx
-keep                                   0 # keep intermediate files created by GPGPU-Sim when interfacing with external programs
-gpgpu_ptx_save_converted_ptxplus                    0 # Saved converted ptxplus to a file
-gpgpu_occupancy_sm_number                   70 # The SM number to pass to ptxas when getting register usage for computing GPU occupancy. This parameter is required in the config.
-ptx_opcode_latency_int      4,13,4,5,145,21 # Opcode latencies for integers <ADD,MAX,MUL,MAD,DIV,SHFL>Default 1,1,19,25,145,32
-ptx_opcode_latency_fp          4,13,4,5,39 # Opcode latencies for single precision floating points <ADD,MAX,MUL,MAD,DIV>Default 1,1,1,1,30
-ptx_opcode_latency_dp         8,19,8,8,330 # Opcode latencies for double precision floating points <ADD,MAX,MUL,MAD,DIV>Default 8,8,8,8,335
-ptx_opcode_latency_sfu                  100 # Opcode latencies for SFU instructionsDefault 8
-ptx_opcode_latency_tesnor                   64 # Opcode latencies for Tensor instructionsDefault 64
-ptx_opcode_initiation_int          2,2,2,2,8,4 # Opcode initiation intervals for integers <ADD,MAX,MUL,MAD,DIV,SHFL>Default 1,1,4,4,32,4
-ptx_opcode_initiation_fp            2,2,2,2,4 # Opcode initiation intervals for single precision floating points <ADD,MAX,MUL,MAD,DIV>Default 1,1,1,1,5
-ptx_opcode_initiation_dp          4,4,4,4,130 # Opcode initiation intervals for double precision floating points <ADD,MAX,MUL,MAD,DIV>Default 8,8,8,8,130
-ptx_opcode_initiation_sfu                    8 # Opcode initiation intervals for sfu instructionsDefault 8
-ptx_opcode_initiation_tensor                   64 # Opcode initiation intervals for tensor instructionsDefault 64
-cdp_latency         7200,8000,100,12000,1600 # CDP API latency <cudaStreamCreateWithFlags, cudaGetParameterBufferV2_init_perWarp, cudaGetParameterBufferV2_perKernel, cudaLaunchDeviceV2_init_perWarp, cudaLaunchDevicV2_perKernel>Default 7200,8000,100,12000,1600
-network_mode                           2 # Interconnection network mode
-inter_config_file                   mesh # Interconnection network config file
-icnt_in_buffer_limit                  512 # in_buffer_limit
-icnt_out_buffer_limit                  512 # out_buffer_limit
-icnt_subnets                           2 # subnets
-icnt_arbiter_algo                      1 # arbiter_algo
-icnt_verbose                           0 # inct_verbose
-icnt_grant_cycles                      1 # grant_cycles
-gpgpu_ptx_use_cuobjdump                    1 # Use cuobjdump to extract ptx and sass from binaries
-gpgpu_experimental_lib_support                    0 # Try to extract code from cuda libraries [Broken because of unknown cudaGetExportTable]
-checkpoint_option                      0 #  checkpointing flag (0 = no checkpoint)
-checkpoint_kernel                      1 #  checkpointing during execution of which kernel (1- 1st kernel)
-checkpoint_CTA                         0 #  checkpointing after # of CTA (< less than total CTA)
-resume_option                          0 #  resume flag (0 = no resume)
-resume_kernel                          0 #  Resume from which kernel (1= 1st kernel)
-resume_CTA                             0 #  resume from which CTA 
-checkpoint_CTA_t                       0 #  resume from which CTA 
-checkpoint_insn_Y                      0 #  resume from which CTA 
-gpgpu_ptx_convert_to_ptxplus                    0 # Convert SASS (native ISA) to ptxplus and run ptxplus
-gpgpu_ptx_force_max_capability                   70 # Force maximum compute capability
-gpgpu_ptx_inst_debug_to_file                    0 # Dump executed instructions' debug information to file
-gpgpu_ptx_inst_debug_file       inst_debug.txt # Executed instructions' debug output file
-gpgpu_ptx_inst_debug_thread_uid                    1 # Thread UID for executed instructions' debug output
-gpgpu_n_mem_for_l2wb_pcommit                   32 # number of memory modules (e.g. memory controllers) in gpu
-gpgpu_n_sub_partition_per_mchannel_for_l2wb_pcommit                    2 # number of memory subpartition in each memory module
-gpgpu_dl2_bsize_for_l2wb_pcommit                  128 # default 128 bytes
-gpgpu_simd_model                       1 # 1 = post-dominator
-gpgpu_shader_core_pipeline              2048:32 # shader core pipeline config, i.e., {<nthread>:<warpsize>}
-gpgpu_tex_cache:l1  N:4:128:256,L:R:m:N:L,T:512:8,128:2 # per-shader L1 texture cache  (READ-ONLY) config  {<nsets>:<bsize>:<assoc>,<rep>:<wr>:<alloc>:<wr_alloc>,<mshr>:<N>:<merge>,<mq>:<rf>}
-gpgpu_const_cache:l1 N:128:64:8,L:R:f:N:L,S:2:64,4 # per-shader L1 constant memory cache  (READ-ONLY) config  {<nsets>:<bsize>:<assoc>,<rep>:<wr>:<alloc>:<wr_alloc>,<mshr>:<N>:<merge>,<mq>} 
-gpgpu_cache:il1     N:64:128:16,L:R:f:N:L,S:2:48,4 # shader L1 instruction cache config  {<nsets>:<bsize>:<assoc>,<rep>:<wr>:<alloc>:<wr_alloc>,<mshr>:<N>:<merge>,<mq>} 
-gpgpu_cache:dl1     S:1:128:256,L:L:s:N:L,A:256:8,16:0,32 # per-shader L1 data cache config  {<nsets>:<bsize>:<assoc>,<rep>:<wr>:<alloc>:<wr_alloc>,<mshr>:<N>:<merge>,<mq> | none}
-gpgpu_l1_banks                         4 # The number of L1 cache banks
-gpgpu_l1_banks_byte_interleaving                   32 # l1 banks byte interleaving granularity
-gpgpu_l1_banks_hashing_function                    0 # l1 banks hashing function
-gpgpu_l1_latency                      20 # L1 Hit Latency
-gpgpu_smem_latency                    20 # smem Latency
-gpgpu_cache:dl1PrefL1                 none # per-shader L1 data cache config  {<nsets>:<bsize>:<assoc>,<rep>:<wr>:<alloc>:<wr_alloc>,<mshr>:<N>:<merge>,<mq> | none}
-gpgpu_cache:dl1PrefShared                 none # per-shader L1 data cache config  {<nsets>:<bsize>:<assoc>,<rep>:<wr>:<alloc>:<wr_alloc>,<mshr>:<N>:<merge>,<mq> | none}
-gpgpu_gmem_skip_L1D                    0 # global memory access skip L1D cache (implements -Xptxas -dlcm=cg, default=no skip)
-gpgpu_perfect_mem                      0 # enable perfect memory mode (no cache miss)
-n_regfile_gating_group                    4 # group of lanes that should be read/written together)
-gpgpu_clock_gated_reg_file                    0 # enable clock gated reg file for power calculations
-gpgpu_clock_gated_lanes                    0 # enable clock gated lanes for power calculations
-gpgpu_shader_registers                65536 # Number of registers per shader core. Limits number of concurrent CTAs. (default 8192)
-gpgpu_registers_per_block                65536 # Maximum number of registers per CTA. (default 8192)
-gpgpu_ignore_resources_limitation                    0 # gpgpu_ignore_resources_limitation (default 0)
-gpgpu_shader_cta                      32 # Maximum number of concurrent CTAs in shader (default 8)
-gpgpu_num_cta_barriers                   16 # Maximum number of named barriers per CTA (default 16)
-gpgpu_n_clusters                      80 # number of processing clusters
-gpgpu_n_cores_per_cluster                    1 # number of simd cores per cluster
-gpgpu_n_cluster_ejection_buffer_size                   32 # number of packets in ejection buffer
-gpgpu_n_ldst_response_buffer_size                    2 # number of response packets in ld/st unit ejection buffer
-gpgpu_shmem_per_block                65536 # Size of shared memory per thread block or CTA (default 48kB)
-gpgpu_shmem_size                   98304 # Size of shared memory per shader core (default 16kB)
-gpgpu_adaptive_cache_config            536870913 # adaptive_cache_config
-gpgpu_shmem_sizeDefault                98304 # Size of shared memory per shader core (default 16kB)
-gpgpu_shmem_size_PrefL1                16384 # Size of shared memory per shader core (default 16kB)
-gpgpu_shmem_size_PrefShared                16384 # Size of shared memory per shader core (default 16kB)
-gpgpu_shmem_num_banks                   32 # Number of banks in the shared memory in each shader core (default 16)
-gpgpu_shmem_limited_broadcast                    0 # Limit shared memory to do one broadcast per cycle (default on)
-gpgpu_shmem_warp_parts                    1 # Number of portions a warp is divided into for shared memory bank conflict check 
-gpgpu_mem_unit_ports                    1 # The number of memory transactions allowed per core cycle
-gpgpu_shmem_warp_parts                    1 # Number of portions a warp is divided into for shared memory bank conflict check 
-gpgpu_warpdistro_shader                   -1 # Specify which shader core to collect the warp size distribution from
-gpgpu_warp_issue_shader                    0 # Specify which shader core to collect the warp issue distribution from
-gpgpu_local_mem_map                    1 # Mapping from local memory space address to simulated GPU physical address space (default = enabled)
-gpgpu_num_reg_banks                   16 # Number of register banks (default = 8)
-gpgpu_reg_bank_use_warp_id                    0 # Use warp ID in mapping registers to banks (default = off)
-gpgpu_sub_core_model                    1 # Sub Core Volta/Pascal model (default = off)
-gpgpu_enable_specialized_operand_collector                    0 # enable_specialized_operand_collector
-gpgpu_operand_collector_num_units_sp                    4 # number of collector units (default = 4)
-gpgpu_operand_collector_num_units_dp                    0 # number of collector units (default = 0)
-gpgpu_operand_collector_num_units_sfu                    4 # number of collector units (default = 4)
-gpgpu_operand_collector_num_units_int                    0 # number of collector units (default = 0)
-gpgpu_operand_collector_num_units_tensor_core                    4 # number of collector units (default = 4)
-gpgpu_operand_collector_num_units_mem                    2 # number of collector units (default = 2)
-gpgpu_operand_collector_num_units_gen                    8 # number of collector units (default = 0)
-gpgpu_operand_collector_num_in_ports_sp                    1 # number of collector unit in ports (default = 1)
-gpgpu_operand_collector_num_in_ports_dp                    0 # number of collector unit in ports (default = 0)
-gpgpu_operand_collector_num_in_ports_sfu                    1 # number of collector unit in ports (default = 1)
-gpgpu_operand_collector_num_in_ports_int                    0 # number of collector unit in ports (default = 0)
-gpgpu_operand_collector_num_in_ports_tensor_core                    1 # number of collector unit in ports (default = 1)
-gpgpu_operand_collector_num_in_ports_mem                    1 # number of collector unit in ports (default = 1)
-gpgpu_operand_collector_num_in_ports_gen                    8 # number of collector unit in ports (default = 0)
-gpgpu_operand_collector_num_out_ports_sp                    1 # number of collector unit in ports (default = 1)
-gpgpu_operand_collector_num_out_ports_dp                    0 # number of collector unit in ports (default = 0)
-gpgpu_operand_collector_num_out_ports_sfu                    1 # number of collector unit in ports (default = 1)
-gpgpu_operand_collector_num_out_ports_int                    0 # number of collector unit in ports (default = 0)
-gpgpu_operand_collector_num_out_ports_tensor_core                    1 # number of collector unit in ports (default = 1)
-gpgpu_operand_collector_num_out_ports_mem                    1 # number of collector unit in ports (default = 1)
-gpgpu_operand_collector_num_out_ports_gen                    8 # number of collector unit in ports (default = 0)
-gpgpu_coalesce_arch                   60 # Coalescing arch (GT200 = 13, Fermi = 20)
-gpgpu_num_sched_per_core                    4 # Number of warp schedulers per core
-gpgpu_max_insn_issue_per_warp                    1 # Max number of instructions that can be issued per warp in one cycle by scheduler (either 1 or 2)
-gpgpu_dual_issue_diff_exec_units                    1 # should dual issue use two different execution unit resources (Default = 1)
-gpgpu_simt_core_sim_order                    1 # Select the simulation order of cores in a cluster (0=Fix, 1=Round-Robin)
-gpgpu_pipeline_widths 4,4,4,4,4,4,4,4,4,4,8,4,4 # Pipeline widths ID_OC_SP,ID_OC_DP,ID_OC_INT,ID_OC_SFU,ID_OC_MEM,OC_EX_SP,OC_EX_DP,OC_EX_INT,OC_EX_SFU,OC_EX_MEM,EX_WB,ID_OC_TENSOR_CORE,OC_EX_TENSOR_CORE
-gpgpu_tensor_core_avail                    1 # Tensor Core Available (default=0)
-gpgpu_num_sp_units                     4 # Number of SP units (default=1)
-gpgpu_num_dp_units                     4 # Number of DP units (default=0)
-gpgpu_num_int_units                    4 # Number of INT units (default=0)
-gpgpu_num_sfu_units                    4 # Number of SF units (default=1)
-gpgpu_num_tensor_core_units                    4 # Number of tensor_core units (default=1)
-gpgpu_num_mem_units                    1 # Number if ldst units (default=1) WARNING: not hooked up to anything
-gpgpu_scheduler                      gto # Scheduler configuration: < lrr | gto | two_level_active > If two_level_active:<num_active_warps>:<inner_prioritization>:<outer_prioritization>For complete list of prioritization values see shader.h enum scheduler_prioritization_typeDefault: gto
-gpgpu_concurrent_kernel_sm                    0 # Support concurrent kernels on a SM (default = disabled)
-gpgpu_perfect_inst_const_cache                    1 # perfect inst and const cache mode, so all inst and const hits in the cache(default = disabled)
-gpgpu_inst_fetch_throughput                    4 # the number of fetched intruction per warp each cycle
-gpgpu_reg_file_port_throughput                    2 # the number ports of the register file
-specialized_unit_1         0,4,4,4,4,BRA # specialized unit config {<enabled>,<num_units>:<latency>:<initiation>,<ID_OC_SPEC>:<OC_EX_SPEC>,<NAME>}
-specialized_unit_2         0,4,4,4,4,BRA # specialized unit config {<enabled>,<num_units>:<latency>:<initiation>,<ID_OC_SPEC>:<OC_EX_SPEC>,<NAME>}
-specialized_unit_3         0,4,4,4,4,BRA # specialized unit config {<enabled>,<num_units>:<latency>:<initiation>,<ID_OC_SPEC>:<OC_EX_SPEC>,<NAME>}
-specialized_unit_4         0,4,4,4,4,BRA # specialized unit config {<enabled>,<num_units>:<latency>:<initiation>,<ID_OC_SPEC>:<OC_EX_SPEC>,<NAME>}
-specialized_unit_5         0,4,4,4,4,BRA # specialized unit config {<enabled>,<num_units>:<latency>:<initiation>,<ID_OC_SPEC>:<OC_EX_SPEC>,<NAME>}
-specialized_unit_6         0,4,4,4,4,BRA # specialized unit config {<enabled>,<num_units>:<latency>:<initiation>,<ID_OC_SPEC>:<OC_EX_SPEC>,<NAME>}
-specialized_unit_7         0,4,4,4,4,BRA # specialized unit config {<enabled>,<num_units>:<latency>:<initiation>,<ID_OC_SPEC>:<OC_EX_SPEC>,<NAME>}
-specialized_unit_8         0,4,4,4,4,BRA # specialized unit config {<enabled>,<num_units>:<latency>:<initiation>,<ID_OC_SPEC>:<OC_EX_SPEC>,<NAME>}
-gpgpu_perf_sim_memcpy                    1 # Fill the L2 cache on memcpy
-gpgpu_simple_dram_model                    0 # simple_dram_model with fixed latency and BW
-gpgpu_dram_scheduler                    1 # 0 = fifo, 1 = FR-FCFS (defaul)
-gpgpu_dram_partition_queues          64:64:64:64 # i2$:$2d:d2$:$2i
-l2_ideal                               0 # Use a ideal L2 cache that always hit
-gpgpu_cache:dl2     S:32:128:24,L:B:m:L:P,A:192:4,32:0,32 # unified banked L2 data cache config  {<nsets>:<bsize>:<assoc>,<rep>:<wr>:<alloc>:<wr_alloc>,<mshr>:<N>:<merge>,<mq>}
-gpgpu_cache:dl2_texture_only                    0 # L2 cache used for texture only
-gpgpu_n_mem                           32 # number of memory modules (e.g. memory controllers) in gpu
-gpgpu_n_sub_partition_per_mchannel                    2 # number of memory subpartition in each memory module
-gpgpu_n_mem_per_ctrlr                    1 # number of memory chips per memory controller
-gpgpu_memlatency_stat                   14 # track and display latency statistics 0x2 enables MC, 0x4 enables queue logs
-gpgpu_frfcfs_dram_sched_queue_size                   64 # 0 = unlimited (default); # entries per chip
-gpgpu_dram_return_queue_size                  192 # 0 = unlimited (default); # entries per chip
-gpgpu_dram_buswidth                   16 # default = 4 bytes (8 bytes per cycle at DDR)
-gpgpu_dram_burst_length                    2 # Burst length of each DRAM request (default = 4 data bus cycle)
-dram_data_command_freq_ratio                    2 # Frequency ratio between DRAM data bus and command bus (default = 2 times, i.e. DDR)
-gpgpu_dram_timing_opt nbk=16:CCD=1:RRD=3:RCD=12:RAS=28:RP=12:RC=40: CL=12:WL=2:CDLR=3:WR=10:nbkgrp=4:CCDL=2:RTPL=3 # DRAM timing parameters = {nbk:tCCD:tRRD:tRCD:tRAS:tRP:tRC:CL:WL:tCDLR:tWR:nbkgrp:tCCDL:tRTPL}
-gpgpu_l2_rop_latency                  160 # ROP queue latency (default 85)
-dram_latency                         200 # DRAM latency (default 30)
-dram_write_latency                   600 # DRAM write latency (default 100)
-dram_dual_bus_interface                    1 # dual_bus_interface (default = 0) 
-dram_bnk_indexing_policy                    0 # dram_bnk_indexing_policy (0 = normal indexing, 1 = Xoring with the higher bits) (Default = 0)
-dram_bnkgrp_indexing_policy                    1 # dram_bnkgrp_indexing_policy (0 = take higher bits, 1 = take lower bits) (Default = 0)
-dram_seperate_write_queue_enable                    0 # Seperate_Write_Queue_Enable
-dram_write_queue_size             32:28:16 # Write_Queue_Size
-dram_elimnate_rw_turnaround                    0 # elimnate_rw_turnaround i.e set tWTR and tRTW = 0
-icnt_flit_size                        40 # icnt_flit_size
-gpgpu_mem_addr_mapping dramid@8;00000000.00000000.00000000.00000000.0000RRRR.RRRRRRRR.RBBBCCCB.CCCSSSSS # mapping memory address to dram model {dramid@<start bit>;<memory address map>}
-gpgpu_mem_addr_test                    0 # run sweep test to check address mapping for aliased address
-gpgpu_mem_address_mask                    1 # 0 = old addressing mask, 1 = new addressing mask, 2 = new add. mask + flipped bank sel and chip sel bits
-gpgpu_memory_partition_indexing                    0 # 0 = no indexing, 1 = bitwise xoring, 2 = IPoly, 3 = custom indexing
-gpuwattch_xml_file         gpuwattch.xml # GPUWattch XML file
-power_simulation_enabled                    0 # Turn on power simulator (1=On, 0=Off)
-power_per_cycle_dump                    0 # Dump detailed power output each cycle
-power_trace_enabled                    0 # produce a file for the power trace (1=On, 0=Off)
-power_trace_zlevel                     6 # Compression level of the power trace output log (0=no comp, 9=highest)
-steady_power_levels_enabled                    0 # produce a file for the steady power levels (1=On, 0=Off)
-steady_state_definition                  8:4 # allowed deviation:number of samples
-gpgpu_max_cycle                        0 # terminates gpu simulation early (0 = no limit)
-gpgpu_max_insn                         0 # terminates gpu simulation early (0 = no limit)
-gpgpu_max_cta                          0 # terminates gpu simulation early (0 = no limit)
-gpgpu_max_completed_cta                 1000 # terminates gpu simulation early (0 = no limit)
-gpgpu_runtime_stat                   500 # display runtime statistics such as dram utilization {<freq>:<flag>}
-liveness_message_freq                    1 # Minimum number of seconds between simulation liveness messages (0 = always print)
-gpgpu_compute_capability_major                    7 # Major compute capability version number
-gpgpu_compute_capability_minor                    0 # Minor compute capability version number
-gpgpu_flush_l1_cache                    1 # Flush L1 cache at the end of each kernel call
-gpgpu_flush_l2_cache                    0 # Flush L2 cache at the end of each kernel call
-gpgpu_deadlock_detect                    1 # Stop the simulation at deadlock (1=on (default), 0=off)
-gpgpu_ptx_instruction_classification                    0 # if enabled will classify ptx instruction types per kernel (Max 255 kernels now)
-gpgpu_ptx_sim_mode                     0 # Select between Performance (default) or Functional simulation (1)
-gpgpu_clock_domains 1132.0:1132.0:1132.0:850.0 # Clock Domain Frequencies in MhZ {<Core Clock>:<ICNT Clock>:<L2 Clock>:<DRAM Clock>}
-gpgpu_max_concurrent_kernel                    8 # maximum kernels that can run concurrently on GPU
-gpgpu_cflog_interval                    0 # Interval between each snapshot in control flow logger
-visualizer_enabled               200f3ff8827e85c83ff3eefb99f59c8c  /home/pli11/Videos/parboil_benchmark/parboil/benchmarks/lbm/build/nvm_default/lbm
Extracting PTX file and ptxas options    1: lbm.1.sm_70.ptx -arch=sm_70
Extracting PTX file and ptxas options    2: lbm.2.sm_70.ptx -arch=sm_70
      0 # Turn on visualizer output (1=On, 0=Off)
-visualizer_outputfile                 NULL # Specifies the output log file for visualizer
-visualizer_zlevel                      6 # Compression level of the visualizer output log (0=no comp, 9=highest)
-gpgpu_stack_size_limit                 1024 # GPU thread stack size
-gpgpu_heap_size_limit              8388608 # GPU malloc heap size 
-gpgpu_runtime_sync_depth_limit                    2 # GPU device runtime synchronize depth
-gpgpu_runtime_pending_launch_count_limit                 2048 # GPU device runtime pending launch count
-trace_enabled                          0 # Turn on traces
-trace_components                    none # comma seperated list of traces to enable. Complete list found in trace_streams.tup. Default none
-trace_sampling_core                    0 # The core which is printed using CORE_DPRINTF. Default 0
-trace_sampling_memory_partition                   -1 # The memory partition which is printed using MEMPART_DPRINTF. Default -1 (i.e. all)
-enable_ptx_file_line_stats                    1 # Turn on PTX source line statistic profiling. (1 = On)
-ptx_line_stats_filename gpgpu_inst_stats.txt # Output file for PTX source line statistics.
-gpgpu_kernel_launch_latency                 5000 # Kernel launch latency in cycles. Default: 0
-gpgpu_cdp_enabled                      0 # Turn on CDP
-gpgpu_TB_launch_latency                    0 # thread block launch latency in cycles. Default: 0
DRAM Timing Options:
nbk                                    16 # number of banks
CCD                                     1 # column to column delay
RRD                                     3 # minimal delay between activation of rows in different banks
RCD                                    12 # row to column delay
RAS                                    28 # time needed to activate row
RP                                     12 # time needed to precharge (deactivate) row
RC                                     40 # row cycle time
CDLR                                    3 # switching from write to read (changes tWTR)
WR                                     10 # last data-in to row precharge
CL                                     12 # CAS latency
WL                                      2 # Write latency
nbkgrp                                  4 # number of bank groups
CCDL                                    2 # column to column delay between accesses to different bank groups
RTPL                                    3 # read to precharge delay between accesses to different bank groups
Total number of memory sub partition = 64
addr_dec_mask[CHIP]  = 0000000000001f00 	high:13 low:8
addr_dec_mask[BK]    = 00000000000e2000 	high:20 low:13
addr_dec_mask[ROW]   = 00000001fff00000 	high:33 low:20
addr_dec_mask[COL]   = 000000000001c0ff 	high:17 low:0
addr_dec_mask[BURST] = 000000000000001f 	high:5 low:0
sub_partition_id_mask = 0000000000002000
GPGPU-Sim uArch: clock freqs: 1132000000.000000:1132000000.000000:1132000000.000000:850000000.000000
GPGPU-Sim uArch: clock periods: 0.00000000088339222615:0.00000000088339222615:0.00000000088339222615:0.00000000117647058824
*** Initializing Memory Statistics ***
GPGPU-Sim uArch: performance model initialization complete.
self exe links to: /home/pli11/Videos/parboil_benchmark/parboil/benchmarks/lbm/build/nvm_default/lbm
self exe links to: /home/pli11/Videos/parboil_benchmark/parboil/benchmarks/lbm/build/nvm_default/lbm
10.1
GPGPU-Sim PTX: __cudaRegisterFatBinary, fat_cubin_handle = 1, filename=default
self exe links to: /home/pli11/Videos/parboil_benchmark/parboil/benchmarks/lbm/build/nvm_default/lbm
Running md5sum using "md5sum /home/pli11/Videos/parboil_benchmark/parboil/benchmarks/lbm/build/nvm_default/lbm "
self exe links to: /home/pli11/Videos/parboil_benchmark/parboil/benchmarks/lbm/build/nvm_default/lbm
Extracting specific PTX file named lbm.1.sm_70.ptx 
Extracting specific PTX file named lbm.2.sm_70.ptx 
self exe links to: /home/pli11/Videos/parboil_benchmark/parboil/benchmarks/lbm/build/nvm_default/lbm
self exe links to: /home/pli11/Videos/parboil_benchmark/parboil/benchmarks/lbm/build/nvm_default/lbm
10.1
GPGPU-Sim PTX: __cudaRegisterFatBinary, fat_cubin_handle = 2, filename=default
GPGPU-Sim PTX: __cudaRegisterFunction _Z32performStreamCollide_kernel_nvm2PfS_ : hostFun 0x0x405bab, fat_cubin_handle = 2
GPGPU-Sim PTX: Parsing lbm.1.sm_70.ptx
GPGPU-Sim PTX: finished parsing EMBEDDED .ptx file lbm.1.sm_70.ptx
GPGPU-Sim PTX: Parsing lbm.2.sm_70.ptx
GPGPU-Sim PTX: allocating global region for "NVM_log" from 0x100 to 0x4000100 (global memory space)
GPGPU-Sim PTX: allocating global region for "NVM_flag" from 0x4000100 to 0x4400100 (global memory space)
GPGPU-Sim PTX: instruction assembly for function '_Z32performStreamCollide_kernel_nvmgPfS_'...   done.
GPGPU-Sim PTX: instruction assembly for function '_Z32performStreamCollide_kernel_nvmiPfS_'...   done.
GPGPU-Sim PTX: instruction assembly for function '_Z32performStreamCollide_kernel_nvm3PfS_'...   done.
GPGPU-Sim PTX: instruction assembly for function '_Z32performStreamCollide_kernel_nvm4PfS_'...   done.
GPGPU-Sim PTX: instruction assembly for function '_Z32performStreamCollide_kernel_nvm5PfS_'...   done.
GPGPU-Sim PTX: instruction assembly for function '_Z32performStreamCollide_kernel_nvm6PfS_'...   done.
GPGPU-Sim PTX: instruction assembly for function '_Z27performStreamCollide_kernelPfS_'...   done.
GPGPU-Sim PTX: instruction assembly for function '_Z32performStreamCollide_kernel_nvmoPfS_'...   done.
GPGPU-Sim PTX: instruction assembly for function '_Z32performStreamCollide_kernel_nvmwPfS_'...   done.
GPGPU-Sim PTX: instruction assembly for function '_Z32performStreamCollide_kernel_nvmqPfS_'...   done.
GPGPU-Sim PTX: instruction assembly for function '_Z32performStreamCollide_kernel_nvmuPfS_'...   done.
GPGPU-Sim PTX: instruction assembly for function '_Z32performStreamCollide_kernel_nvmbPfS_'...   done.
GPGPU-Sim PTX: instruction assembly for function '_Z32performStreamCollide_kernel_nvmjPfS_'...   done.
GPGPU-Sim PTX: instruction assembly for function '_Z32performStreamCollide_kernel_nvmdPfS_'...   done.
GPGPU-Sim PTX: instruction assembly for function '_Z32performStreamCollide_kernel_nvmlPfS_'...   done.
GPGPU-Sim PTX: instruction assembly for function '_Z32performStreamCollide_kernel_nvm1PfS_'...   done.
GPGPU-Sim PTX: instruction assembly for function '_Z32performStreamCollide_kernel_nvm2PfS_'...   done.
GPGPU-Sim PTX: finished parsing EMBEDDED .ptx file lbm.2.sm_70.ptx
GPGPU-Sim PTX: loading globals with explicit initializers... 
GPGPU-Sim PTX: finished loading globals (0 bytes total).
GPGPU-Sim PTX: loading constants with explicit initializers...  done.
GPGPU-Sim PTX: Loading PTXInfo from lbm.1.sm_70.ptx
GPGPU-Sim PTX: Loading PTXInfo from lbm.2.sm_70.ptx
GPGPU-Sim PTX: Kernel '_Z32performStreamCollide_kernel_nvm2PfS_' : regs=44, lmem=0, smem=0, cmem=368
GPGPU-Sim PTX: Kernel '_Z32performStreamCollide_kernel_nvm1PfS_' : regs=44, lmem=0, smem=0, cmem=368
GPGPU-Sim PTX: Kernel '_Z32performStreamCollide_kernel_nvmlPfS_' : regs=40, lmem=0, smem=0, cmem=368
GPGPU-Sim PTX: Kernel '_Z32performStreamCollide_kernel_nvmdPfS_' : regs=40, lmem=0, smem=0, cmem=368
GPGPU-Sim PTX: Kernel '_Z32performStreamCollide_kernel_nvmjPfS_' : regs=40, lmem=0, smem=0, cmem=368
GPGPU-Sim PTX: Kernel '_Z32performStreamCollide_kernel_nvmbPfS_' : regs=40, lmem=0, smem=0, cmem=368
GPGPU-Sim PTX: Kernel '_Z32performStreamCollide_kernel_nvmuPfS_' : regs=40, lmem=0, smem=0, cmem=368
GPGPU-Sim PTX: Kernel '_Z32performStreamCollide_kernel_nvmqPfS_' : regs=40, lmem=0, smem=0, cmem=368
GPGPU-Sim PTX: Kernel '_Z32performStreamCollide_kernel_nvmwPfS_' : regs=40, lmem=0, smem=0, cmem=368
GPGPU-Sim PTX: Kernel '_Z32performStreamCollide_kernel_nvmoPfS_' : regs=40, lmem=0, smem=0, cmem=368
GPGPU-Sim PTX: Kernel '_Z27performStreamCollide_kernelPfS_' : regs=40, lmem=0, smem=0, cmem=368
GPGPU-Sim PTX: Kernel '_Z32performStreamCollide_kernel_nvm6PfS_' : regs=44, lmem=0, smem=0, cmem=368
GPGPU-Sim PTX: Kernel '_Z32performStreamCollide_kernel_nvm5PfS_' : regs=44, lmem=0, smem=0, cmem=368
GPGPU-Sim PTX: Kernel '_Z32performStreamCollide_kernel_nvm4PfS_' : regs=56, lmem=0, smem=0, cmem=368
GPGPU-Sim PTX: Kernel '_Z32performStreamCollide_kernel_nvm3PfS_' : regs=56, lmem=0, smem=0, cmem=368
GPGPU-Sim PTX: Kernel '_Z32performStreamCollide_kernel_nvmiPfS_' : regs=48, lmem=0, smem=0, cmem=368
GPGPU-Sim PTX: Kernel '_Z32performStreamCollide_kernel_nvmgPfS_' : regs=48, lmem=0, smem=0, cmem=368
GPGPU-Sim PTX: __cudaRegisterFunction _Z32performStreamCollide_kernel_nvm1PfS_ : hostFun 0x0x405a6b, fat_cubin_handle = 2
GPGPU-Sim PTX: __cudaRegisterFunction _Z32performStreamCollide_kernel_nvmlPfS_ : hostFun 0x0x40592b, fat_cubin_handle = 2
GPGPU-Sim PTX: __cudaRegisterFunction _Z32performStreamCollide_kernel_nvmdPfS_ : hostFun 0x0x4057eb, fat_cubin_handle = 2
GPGPU-Sim PTX: __cudaRegisterFunction _Z32performStreamCollide_kernel_nvmjPfS_ : hostFun 0x0x4056ab, fat_cubin_handle = 2
GPGPU-Sim PTX: __cudaRegisterFunction _Z32performStreamCollide_kernel_nvmbPfS_ : hostFun 0x0x40556b, fat_cubin_handle = 2
GPGPU-Sim PTX: __cudaRegisterFunction _Z32performStreamCollide_kernel_nvmuPfS_ : hostFun 0x0x40542b, fat_cubin_handle = 2
GPGPU-Sim PTX: __cudaRegisterFunction _Z32performStreamCollide_kernel_nvmqPfS_ : hostFun 0x0x4052eb, fat_cubin_handle = 2
GPGPU-Sim PTX: __cudaRegisterFunction _Z32performStreamCollide_kernel_nvmwPfS_ : hostFun 0x0x4051ab, fat_cubin_handle = 2
GPGPU-Sim PTX: __cudaRegisterFunction _Z32performStreamCollide_kernel_nvmoPfS_ : hostFun 0x0x40506b, fat_cubin_handle = 2
GPGPU-Sim PTX: __cudaRegisterFunction _Z27performStreamCollide_kernelPfS_ : hostFun 0x0x404f2b, fat_cubin_handle = 2
GPGPU-Sim PTX: __cudaRegisterFunction _Z32performStreamCollide_kernel_nvm6PfS_ : hostFun 0x0x404deb, fat_cubin_handle = 2
GPGPU-Sim PTX: __cudaRegisterFunction _Z32performStreamCollide_kernel_nvm5PfS_ : hostFun 0x0x404cab, fat_cubin_handle = 2
GPGPU-Sim PTX: __cudaRegisterFunction _Z32performStreamCollide_kernel_nvm4PfS_ : hostFun 0x0x404b6b, fat_cubin_handle = 2
GPGPU-Sim PTX: __cudaRegisterFunction _Z32performStreamCollide_kernel_nvm3PfS_ : hostFun 0x0x404a2b, fat_cubin_handle = 2
GPGPU-Sim PTX: __cudaRegisterFunction _Z32performStreamCollide_kernel_nvmiPfS_ : hostFun 0x0x4048eb, fat_cubin_handle = 2
GPGPU-Sim PTX: __cudaRegisterFunction _Z32performStreamCollide_kernel_nvmgPfS_ : hostFun 0x0x4047ab, fat_cubin_handle = 2
GPGPU-Sim PTX: __cudaRegisterVar: hostVar = 0x60f380; deviceAddress = NVM_log; deviceName = NVM_log
GPGPU-Sim PTX: __cudaRegisterVar: Registering const memory space of 67108864 bytes
GPGPU-Sim PTX registering global NVM_log hostVar to name mapping
GPGPU-Sim PTX: __cudaRegisterVar: hostVar = 0x460f380; deviceAddress = NVM_flag; deviceName = NVM_flag
GPGPU-Sim PTX: __cudaRegisterVar: Registering const memory space of 4194304 bytes
GPGPU-Sim PTX registering global NVM_flag hostVar to name mapping
LBM_allocateGrid: allocated 185.2 MByte
MAIN_printInfo:
	grid size      : 120 x 120 x 150 = 2.16 * 10^6 Cells
	nTimeSteps     : 3000
	result file    : /home/pli11/Videos/parboil_benchmark/parboil/benchmarks/lbm/run/long/reference.dat
	action         : store
	simulation type: lid-driven cavity
	obstacle file  : /home/pli11/Videos/parboil_benchmark/parboil/datasets/lbm/long/input/120_120_150_ldc.of

LBM_allocateGrid: allocated 185.2 MByte
LBM_allocateGrid: allocated 185.2 MByte
LBM_showGridStatistics:
	nObstacleCells:  343321 nAccelCells:   26912 nFluidCells: 1789767
	minRho:   1.0000 maxRho:   1.0000 mass: 2.160000e+06
	minU: 0.000000e+00 maxU: 0.000000e+00

event update
GPGPU-Sim: synchronize waiting for inactive GPU simulation
GPGPU-Sim API: Stream Manager State
GPGPU-Sim: detected inactive GPU simulation thread
GPGPU-Sim PTX: Setting up arguments for 8 bytes starting at 0x7ffd4667ac88..
GPGPU-Sim PTX: Setting up arguments for 8 bytes starting at 0x7ffd4667ac80..

GPGPU-Sim PTX: cudaLaunch for 0x0x405a6b (mode=performance simulation) on stream 0
GPGPU-Sim PTX: finding reconvergence points for '_Z32performStreamCollide_kernel_nvm1PfS_'...
GPGPU-Sim PTX: Finding dominators for '_Z32performStreamCollide_kernel_nvm1PfS_'...
GPGPU-Sim PTX: Finding immediate dominators for '_Z32performStreamCollide_kernel_nvm1PfS_'...
GPGPU-Sim PTX: Finding postdominators for '_Z32performStreamCollide_kernel_nvm1PfS_'...
GPGPU-Sim PTX: Finding immediate postdominators for '_Z32performStreamCollide_kernel_nvm1PfS_'...
GPGPU-Sim PTX: pre-decoding instructions for '_Z32performStreamCollide_kernel_nvm1PfS_'...
GPGPU-Sim PTX: reconvergence points for _Z32performStreamCollide_kernel_nvm1PfS_...
GPGPU-Sim PTX:  1 (potential) branch divergence @  PC=0xa010 (lbm.2.sm_70.ptx:6643) @%p1 bra BB15_1;
GPGPU-Sim PTX:    immediate post dominator      @  PC=0xa5a8 (lbm.2.sm_70.ptx:6828) cvta.to.global.u64 %rd6, %rd1;
GPGPU-Sim PTX:  2 (potential) branch divergence @  PC=0xa018 (lbm.2.sm_70.ptx:6644) bra.uni BB15_2;
GPGPU-Sim PTX:    immediate post dominator      @  PC=0xa070 (lbm.2.sm_70.ptx:6659) add.f32 %f58, %f220, %f218;
GPGPU-Sim PTX:  3 (potential) branch divergence @  PC=0xa068 (lbm.2.sm_70.ptx:6656) bra.uni BB15_3;
GPGPU-Sim PTX:    immediate post dominator      @  PC=0xa5a8 (lbm.2.sm_70.ptx:6828) cvta.to.global.u64 %rd6, %rd1;
GPGPU-Sim PTX:  4 (potential) branch divergence @  PC=0xa6a0 (lbm.2.sm_70.ptx:6859) @%p3 bra BB15_5;
GPGPU-Sim PTX:    immediate post dominator      @  PC=0xa6c0 (lbm.2.sm_70.ptx:6869) membar.gl;
GPGPU-Sim PTX: ... end of reconvergence points for _Z32performStreamCollide_kernel_nvm1PfS_
GPGPU-Sim PTX: ... done pre-decoding instructions for '_Z32performStreamCollide_kernel_nvm1PfS_'.
GPGPU-Sim PTX: pushing kernel '_Z32performStreamCollide_kernel_nvm1PfS_' to stream 0, gridDim= (120,150,1) blockDim = (120,1,1) 
GPGPU-Sim uArch: Shader 0 bind to kernel 1 '_Z32performStreamCollide_kernel_nvm1PfS_'
GPGPU-Sim uArch: CTA/core = 11, limited by: regs
GPGPU-Sim: Reconfigure L1 cache to 128KB
GPGPU-Sim uArch: Shader 1 bind to kernel 1 '_Z32performStreamCollide_kernel_nvm1PfS_'
GPGPU-Sim uArch: Shader 2 bind to kernel 1 '_Z32performStreamCollide_kernel_nvm1PfS_'
GPGPU-Sim uArch: Shader 3 bind to kernel 1 '_Z32performStreamCollide_kernel_nvm1PfS_'
GPGPU-Sim uArch: Shader 4 bind to kernel 1 '_Z32performStreamCollide_kernel_nvm1PfS_'
GPGPU-Sim uArch: Shader 5 bind to kernel 1 '_Z32performStreamCollide_kernel_nvm1PfS_'
GPGPU-Sim uArch: Shader 6 bind to kernel 1 '_Z32performStreamCollide_kernel_nvm1PfS_'
GPGPU-Sim uArch: Shader 7 bind to kernel 1 '_Z32performStreamCollide_kernel_nvm1PfS_'
GPGPU-Sim uArch: Shader 8 bind to kernel 1 '_Z32performStreamCollide_kernel_nvm1PfS_'
GPGPU-Sim uArch: Shader 9 bind to kernel 1 '_Z32performStreamCollide_kernel_nvm1PfS_'
GPGPU-Sim uArch: Shader 10 bind to kernel 1 '_Z32performStreamCollide_kernel_nvm1PfS_'
GPGPU-Sim uArch: Shader 11 bind to kernel 1 '_Z32performStreamCollide_kernel_nvm1PfS_'
GPGPU-Sim uArch: Shader 12 bind to kernel 1 '_Z32performStreamCollide_kernel_nvm1PfS_'
GPGPU-Sim uArch: Shader 13 bind to kernel 1 '_Z32performStreamCollide_kernel_nvm1PfS_'
GPGPU-Sim uArch: Shader 14 bind to kernel 1 '_Z32performStreamCollide_kernel_nvm1PfS_'
GPGPU-Sim uArch: Shader 15 bind to kernel 1 '_Z32performStreamCollide_kernel_nvm1PfS_'
GPGPU-Sim uArch: Shader 16 bind to kernel 1 '_Z32performStreamCollide_kernel_nvm1PfS_'
GPGPU-Sim uArch: Shader 17 bind to kernel 1 '_Z32performStreamCollide_kernel_nvm1PfS_'
GPGPU-Sim uArch: Shader 18 bind to kernel 1 '_Z32performStreamCollide_kernel_nvm1PfS_'
GPGPU-Sim uArch: Shader 19 bind to kernel 1 '_Z32performStreamCollide_kernel_nvm1PfS_'
GPGPU-Sim uArch: Shader 20 bind to kernel 1 '_Z32performStreamCollide_kernel_nvm1PfS_'
GPGPU-Sim uArch: Shader 21 bind to kernel 1 '_Z32performStreamCollide_kernel_nvm1PfS_'
GPGPU-Sim uArch: Shader 22 bind to kernel 1 '_Z32performStreamCollide_kernel_nvm1PfS_'
GPGPU-Sim uArch: Shader 23 bind to kernel 1 '_Z32performStreamCollide_kernel_nvm1PfS_'
GPGPU-Sim uArch: Shader 24 bind to kernel 1 '_Z32performStreamCollide_kernel_nvm1PfS_'
GPGPU-Sim uArch: Shader 25 bind to kernel 1 '_Z32performStreamCollide_kernel_nvm1PfS_'
GPGPU-Sim uArch: Shader 26 bind to kernel 1 '_Z32performStreamCollide_kernel_nvm1PfS_'
GPGPU-Sim uArch: Shader 27 bind to kernel 1 '_Z32performStreamCollide_kernel_nvm1PfS_'
GPGPU-Sim uArch: Shader 28 bind to kernel 1 '_Z32performStreamCollide_kernel_nvm1PfS_'
GPGPU-Sim uArch: Shader 29 bind to kernel 1 '_Z32performStreamCollide_kernel_nvm1PfS_'
GPGPU-Sim uArch: Shader 30 bind to kernel 1 '_Z32performStreamCollide_kernel_nvm1PfS_'
GPGPU-Sim uArch: Shader 31 bind to kernel 1 '_Z32performStreamCollide_kernel_nvm1PfS_'
GPGPU-Sim uArch: Shader 32 bind to kernel 1 '_Z32performStreamCollide_kernel_nvm1PfS_'
GPGPU-Sim uArch: Shader 33 bind to kernel 1 '_Z32performStreamCollide_kernel_nvm1PfS_'
GPGPU-Sim uArch: Shader 34 bind to kernel 1 '_Z32performStreamCollide_kernel_nvm1PfS_'
GPGPU-Sim uArch: Shader 35 bind to kernel 1 '_Z32performStreamCollide_kernel_nvm1PfS_'
GPGPU-Sim uArch: Shader 36 bind to kernel 1 '_Z32performStreamCollide_kernel_nvm1PfS_'
GPGPU-Sim uArch: Shader 37 bind to kernel 1 '_Z32performStreamCollide_kernel_nvm1PfS_'
GPGPU-Sim uArch: Shader 38 bind to kernel 1 '_Z32performStreamCollide_kernel_nvm1PfS_'
GPGPU-Sim uArch: Shader 39 bind to kernel 1 '_Z32performStreamCollide_kernel_nvm1PfS_'
GPGPU-Sim uArch: Shader 40 bind to kernel 1 '_Z32performStreamCollide_kernel_nvm1PfS_'
GPGPU-Sim uArch: Shader 41 bind to kernel 1 '_Z32performStreamCollide_kernel_nvm1PfS_'
GPGPU-Sim uArch: Shader 42 bind to kernel 1 '_Z32performStreamCollide_kernel_nvm1PfS_'
GPGPU-Sim uArch: Shader 43 bind to kernel 1 '_Z32performStreamCollide_kernel_nvm1PfS_'
GPGPU-Sim uArch: Shader 44 bind to kernel 1 '_Z32performStreamCollide_kernel_nvm1PfS_'
GPGPU-Sim uArch: Shader 45 bind to kernel 1 '_Z32performStreamCollide_kernel_nvm1PfS_'
GPGPU-Sim uArch: Shader 46 bind to kernel 1 '_Z32performStreamCollide_kernel_nvm1PfS_'
GPGPU-Sim uArch: Shader 47 bind to kernel 1 '_Z32performStreamCollide_kernel_nvm1PfS_'
GPGPU-Sim uArch: Shader 48 bind to kernel 1 '_Z32performStreamCollide_kernel_nvm1PfS_'
GPGPU-Sim uArch: Shader 49 bind to kernel 1 '_Z32performStreamCollide_kernel_nvm1PfS_'
GPGPU-Sim uArch: Shader 50 bind to kernel 1 '_Z32performStreamCollide_kernel_nvm1PfS_'
GPGPU-Sim uArch: Shader 51 bind to kernel 1 '_Z32performStreamCollide_kernel_nvm1PfS_'
GPGPU-Sim uArch: Shader 52 bind to kernel 1 '_Z32performStreamCollide_kernel_nvm1PfS_'
GPGPU-Sim uArch: Shader 53 bind to kernel 1 '_Z32performStreamCollide_kernel_nvm1PfS_'
GPGPU-Sim uArch: Shader 54 bind to kernel 1 '_Z32performStreamCollide_kernel_nvm1PfS_'
GPGPU-Sim uArch: Shader 55 bind to kernel 1 '_Z32performStreamCollide_kernel_nvm1PfS_'
GPGPU-Sim uArch: Shader 56 bind to kernel 1 '_Z32performStreamCollide_kernel_nvm1PfS_'
GPGPU-Sim uArch: Shader 57 bind to kernel 1 '_Z32performStreamCollide_kernel_nvm1PfS_'
GPGPU-Sim uArch: Shader 58 bind to kernel 1 '_Z32performStreamCollide_kernel_nvm1PfS_'
GPGPU-Sim uArch: Shader 59 bind to kernel 1 '_Z32performStreamCollide_kernel_nvm1PfS_'
GPGPU-Sim uArch: Shader 60 bind to kernel 1 '_Z32performStreamCollide_kernel_nvm1PfS_'
GPGPU-Sim uArch: Shader 61 bind to kernel 1 '_Z32performStreamCollide_kernel_nvm1PfS_'
GPGPU-Sim uArch: Shader 62 bind to kernel 1 '_Z32performStreamCollide_kernel_nvm1PfS_'
GPGPU-Sim uArch: Shader 63 bind to kernel 1 '_Z32performStreamCollide_kernel_nvm1PfS_'
GPGPU-Sim uArch: Shader 64 bind to kernel 1 '_Z32performStreamCollide_kernel_nvm1PfS_'
GPGPU-Sim uArch: Shader 65 bind to kernel 1 '_Z32performStreamCollide_kernel_nvm1PfS_'
GPGPU-Sim uArch: Shader 66 bind to kernel 1 '_Z32performStreamCollide_kernel_nvm1PfS_'
GPGPU-Sim uArch: Shader 67 bind to kernel 1 '_Z32performStreamCollide_kernel_nvm1PfS_'
GPGPU-Sim uArch: Shader 68 bind to kernel 1 '_Z32performStreamCollide_kernel_nvm1PfS_'
GPGPU-Sim uArch: Shader 69 bind to kernel 1 '_Z32performStreamCollide_kernel_nvm1PfS_'
GPGPU-Sim uArch: Shader 70 bind to kernel 1 '_Z32performStreamCollide_kernel_nvm1PfS_'
GPGPU-Sim uArch: Shader 71 bind to kernel 1 '_Z32performStreamCollide_kernel_nvm1PfS_'
GPGPU-Sim uArch: Shader 72 bind to kernel 1 '_Z32performStreamCollide_kernel_nvm1PfS_'
GPGPU-Sim uArch: Shader 73 bind to kernel 1 '_Z32performStreamCollide_kernel_nvm1PfS_'
GPGPU-Sim uArch: Shader 74 bind to kernel 1 '_Z32performStreamCollide_kernel_nvm1PfS_'
GPGPU-Sim uArch: Shader 75 bind to kernel 1 '_Z32performStreamCollide_kernel_nvm1PfS_'
GPGPU-Sim uArch: Shader 76 bind to kernel 1 '_Z32performStreamCollide_kernel_nvm1PfS_'
GPGPU-Sim uArch: Shader 77 bind to kernel 1 '_Z32performStreamCollide_kernel_nvm1PfS_'
GPGPU-Sim uArch: Shader 78 bind to kernel 1 '_Z32performStreamCollide_kernel_nvm1PfS_'
GPGPU-Sim uArch: Shader 79 bind to kernel 1 '_Z32performStreamCollide_kernel_nvm1PfS_'
kernel_name = _Z32performStreamCollide_kernel_nvm1PfS_ 
kernel_launch_uid = 1 
gpu_sim_cycle = 75722
gpu_sim_insn = 38508107
gpu_ipc =     508.5458
gpu_tot_sim_cycle = 75722
gpu_tot_sim_insn = 38508107
gpu_tot_ipc =     508.5458
gpu_tot_issued_cta = 1880
gpu_occupancy = 63.7909% 
gpu_tot_occupancy = 63.7909% 
max_total_param_size = 0
gpu_stall_dramfull = 2614650
gpu_stall_icnt2sh    = 0
partiton_level_parallism =      12.8082
partiton_level_parallism_total  =      12.8082
partiton_level_parallism_util =      14.5524
partiton_level_parallism_util_total  =      14.5524
L2_BW  =     458.2239 GB/Sec
L2_BW_total  =     458.2239 GB/Sec
gpu_total_sim_rate=53335
############## bottleneck_stats #############
cycles: core 75722, icnt 75722, l2 75722, dram 56858
gpu_ipc	508.546
gpu_tot_issued_cta = 1880, average cycles = 40
n_dram_writes	 0, n_dram_reads	 0
n_GLOBAL_ACC_R	 510526 
n_LOCAL_ACC_R	 0 
n_CONST_ACC_R	 0 
n_TEXTURE_ACC_R	 0 
n_GLOBAL_ACC_W	 0 
n_LOCAL_ACC_W	 0 
n_L1_WRBK_ACC	 0 
n_L2_WRBK_ACC	 133747 
n_L1_WR_ALLOC_R	 0 
n_L2_WR_ALLOC_R	 0 

n_sm	 80, n_schedulers	 4
scheduler util	0.055	80
L1D data util	0.623	80	0.732	28
L1D tag util	0.834	80	0.892	74
L2 data util	0.431	64	0.477	21
L2 tag util	0.204	64	0.241	5
n_l2_access	 986340
icnt s2m util	0.000	0	0.000	5	flits per packet: -nan
icnt m2s util	0.000	0	0.000	5	flits per packet: -nan
sum=0
n_mem	 32
dram util	0.573	32	0.605	14

latency_l2_hit:	144567941, num_l2_reqs:	29577
L2 hit latency:	4887
latency_dram:	-93106551, num_dram_reqs:	858699
DRAM latency:	4893

n_reg	65536, n_smem	98304, n_thread	2048, n_tb	32
reg file	0.945
smem size	0.000
thread slot	0.688
TB slot    	0.344
L1I tag util	0.113	80	0.139	41

n_mem_pipe	1, n_sp_pipe	4, n_sfu_pipe	4
mem pipe util	0.043	80	0.050	28
sp pipe util	0.052	80	0.065	41
sfu pipe util	0.003	80	0.004	76
ldst mem cycle	0.012	80	0.015	76

smem port	0.000	0

n_reg_bank	16
reg port	0.031	16	0.034	4
L1D tag util	0.834	80	0.892	74
L1D fill util	0.084	80	0.096	41
n_l1d_mshr	4096
L1D mshr util	0.104	80
n_l1d_missq	16
L1D missq util	0.784	80
L1D hit rate	0.000
L1D miss rate	0.187
L1D rsfail rate	0.813
L2 tag util	0.204	64	0.241	5
L2 fill util	0.105	64	0.116	21
n_l2_mshr	192
n_l2_missq	32
L2 mshr util	0.487	64	0.552	28
L2 missq util	0.004	64	0.005	21
L2 hit rate	0.030
L2 miss rate	0.877
L2 rsfail rate	0.093

dram activity	0.905	32	0.922	14

load trans eff	1.000
load trans sz	32.000
load_useful_bytes 17227616, load_transaction_bytes 17227616, icnt_m2s_bytes 0
n_gmem_load_insns 143470, n_gmem_load_accesses 538363
n_smem_access_insn 0, n_smem_accesses 0

tmp_counter/12	0.679

run 0.014, fetch 0.002, sync 0.293, control 0.000, data 0.585, struct 0.106
############ end_bottleneck_stats #############

========= Core cache stats =========
L1I_cache:
	L1I_total_cache_accesses = 0
	L1I_total_cache_misses = 0
	L1I_total_cache_pending_hits = 0
	L1I_total_cache_reservation_fails = 0
L1D_cache:
	L1D_cache_core[0]: Access = 10858, Miss = 10858, Miss_rate = 1.000, Pending_hits = 0, Reservation_fails = 51006
	L1D_cache_core[1]: Access = 12136, Miss = 12136, Miss_rate = 1.000, Pending_hits = 0, Reservation_fails = 51797
	L1D_cache_core[2]: Access = 11433, Miss = 11433, Miss_rate = 1.000, Pending_hits = 0, Reservation_fails = 51544
	L1D_cache_core[3]: Access = 11714, Miss = 11714, Miss_rate = 1.000, Pending_hits = 0, Reservation_fails = 54779
	L1D_cache_core[4]: Access = 10901, Miss = 10901, Miss_rate = 1.000, Pending_hits = 0, Reservation_fails = 52249
	L1D_cache_core[5]: Access = 12584, Miss = 12584, Miss_rate = 1.000, Pending_hits = 0, Reservation_fails = 52449
	L1D_cache_core[6]: Access = 12221, Miss = 12221, Miss_rate = 1.000, Pending_hits = 0, Reservation_fails = 49387
	L1D_cache_core[7]: Access = 11284, Miss = 11284, Miss_rate = 1.000, Pending_hits = 0, Reservation_fails = 52274
	L1D_cache_core[8]: Access = 12285, Miss = 12285, Miss_rate = 1.000, Pending_hits = 0, Reservation_fails = 50737
	L1D_cache_core[9]: Access = 12060, Miss = 12060, Miss_rate = 1.000, Pending_hits = 0, Reservation_fails = 54188
	L1D_cache_core[10]: Access = 12888, Miss = 12888, Miss_rate = 1.000, Pending_hits = 0, Reservation_fails = 48691
	L1D_cache_core[11]: Access = 10936, Miss = 10936, Miss_rate = 1.000, Pending_hits = 0, Reservation_fails = 53546
	L1D_cache_core[12]: Access = 12081, Miss = 12081, Miss_rate = 1.000, Pending_hits = 0, Reservation_fails = 48548
	L1D_cache_core[13]: Access = 12022, Miss = 12022, Miss_rate = 1.000, Pending_hits = 0, Reservation_fails = 52991
	L1D_cache_core[14]: Access = 13038, Miss = 13038, Miss_rate = 1.000, Pending_hits = 0, Reservation_fails = 46856
	L1D_cache_core[15]: Access = 12298, Miss = 12298, Miss_rate = 1.000, Pending_hits = 0, Reservation_fails = 49020
	L1D_cache_core[16]: Access = 9915, Miss = 9915, Miss_rate = 1.000, Pending_hits = 0, Reservation_fails = 56472
	L1D_cache_core[17]: Access = 11174, Miss = 11174, Miss_rate = 1.000, Pending_hits = 0, Reservation_fails = 50560
	L1D_cache_core[18]: Access = 12824, Miss = 12824, Miss_rate = 1.000, Pending_hits = 0, Reservation_fails = 47509
	L1D_cache_core[19]: Access = 11362, Miss = 11362, Miss_rate = 1.000, Pending_hits = 0, Reservation_fails = 54601
	L1D_cache_core[20]: Access = 11510, Miss = 11510, Miss_rate = 1.000, Pending_hits = 0, Reservation_fails = 50650
	L1D_cache_core[21]: Access = 10756, Miss = 10756, Miss_rate = 1.000, Pending_hits = 0, Reservation_fails = 54434
	L1D_cache_core[22]: Access = 10925, Miss = 10925, Miss_rate = 1.000, Pending_hits = 0, Reservation_fails = 51343
	L1D_cache_core[23]: Access = 11623, Miss = 11623, Miss_rate = 1.000, Pending_hits = 0, Reservation_fails = 51104
	L1D_cache_core[24]: Access = 10221, Miss = 10221, Miss_rate = 1.000, Pending_hits = 0, Reservation_fails = 51746
	L1D_cache_core[25]: Access = 12430, Miss = 12430, Miss_rate = 1.000, Pending_hits = 0, Reservation_fails = 52822
	L1D_cache_core[26]: Access = 13379, Miss = 13379, Miss_rate = 1.000, Pending_hits = 0, Reservation_fails = 51010
	L1D_cache_core[27]: Access = 12743, Miss = 12743, Miss_rate = 1.000, Pending_hits = 0, Reservation_fails = 49004
	L1D_cache_core[28]: Access = 13853, Miss = 13853, Miss_rate = 1.000, Pending_hits = 0, Reservation_fails = 51150
	L1D_cache_core[29]: Access = 13740, Miss = 13740, Miss_rate = 1.000, Pending_hits = 0, Reservation_fails = 46153
	L1D_cache_core[30]: Access = 13589, Miss = 13589, Miss_rate = 1.000, Pending_hits = 0, Reservation_fails = 50427
	L1D_cache_core[31]: Access = 13130, Miss = 13130, Miss_rate = 1.000, Pending_hits = 0, Reservation_fails = 48643
	L1D_cache_core[32]: Access = 10731, Miss = 10731, Miss_rate = 1.000, Pending_hits = 0, Reservation_fails = 54202
	L1D_cache_core[33]: Access = 11417, Miss = 11417, Miss_rate = 1.000, Pending_hits = 0, Reservation_fails = 53849
	L1D_cache_core[34]: Access = 12278, Miss = 12278, Miss_rate = 1.000, Pending_hits = 0, Reservation_fails = 53998
	L1D_cache_core[35]: Access = 11299, Miss = 11299, Miss_rate = 1.000, Pending_hits = 0, Reservation_fails = 48754
	L1D_cache_core[36]: Access = 10218, Miss = 10218, Miss_rate = 1.000, Pending_hits = 0, Reservation_fails = 56575
	L1D_cache_core[37]: Access = 12522, Miss = 12522, Miss_rate = 1.000, Pending_hits = 0, Reservation_fails = 52501
	L1D_cache_core[38]: Access = 11815, Miss = 11815, Miss_rate = 1.000, Pending_hits = 0, Reservation_fails = 50163
	L1D_cache_core[39]: Access = 12190, Miss = 12190, Miss_rate = 1.000, Pending_hits = 0, Reservation_fails = 54307
	L1D_cache_core[40]: Access = 11963, Miss = 11963, Miss_rate = 1.000, Pending_hits = 0, Reservation_fails = 48411
	L1D_cache_core[41]: Access = 13687, Miss = 13687, Miss_rate = 1.000, Pending_hits = 0, Reservation_fails = 48589
	L1D_cache_core[42]: Access = 10005, Miss = 10005, Miss_rate = 1.000, Pending_hits = 0, Reservation_fails = 51454
	L1D_cache_core[43]: Access = 11775, Miss = 11775, Miss_rate = 1.000, Pending_hits = 0, Reservation_fails = 49496
	L1D_cache_core[44]: Access = 12060, Miss = 12060, Miss_rate = 1.000, Pending_hits = 0, Reservation_fails = 51856
	L1D_cache_core[45]: Access = 11666, Miss = 11666, Miss_rate = 1.000, Pending_hits = 0, Reservation_fails = 53185
	L1D_cache_core[46]: Access = 12164, Miss = 12164, Miss_rate = 1.000, Pending_hits = 0, Reservation_fails = 51178
	L1D_cache_core[47]: Access = 10544, Miss = 10544, Miss_rate = 1.000, Pending_hits = 0, Reservation_fails = 53707
	L1D_cache_core[48]: Access = 11809, Miss = 11809, Miss_rate = 1.000, Pending_hits = 0, Reservation_fails = 51925
	L1D_cache_core[49]: Access = 10984, Miss = 10984, Miss_rate = 1.000, Pending_hits = 0, Reservation_fails = 51580
	L1D_cache_core[50]: Access = 11703, Miss = 11703, Miss_rate = 1.000, Pending_hits = 0, Reservation_fails = 48633
	L1D_cache_core[51]: Access = 11418, Miss = 11418, Miss_rate = 1.000, Pending_hits = 0, Reservation_fails = 54377
	L1D_cache_core[52]: Access = 11880, Miss = 11880, Miss_rate = 1.000, Pending_hits = 0, Reservation_fails = 49660
	L1D_cache_core[53]: Access = 12244, Miss = 12244, Miss_rate = 1.000, Pending_hits = 0, Reservation_fails = 48040
	L1D_cache_core[54]: Access = 11635, Miss = 11635, Miss_rate = 1.000, Pending_hits = 0, Reservation_fails = 48511
	L1D_cache_core[55]: Access = 11353, Miss = 11353, Miss_rate = 1.000, Pending_hits = 0, Reservation_fails = 52558
	L1D_cache_core[56]: Access = 10649, Miss = 10649, Miss_rate = 1.000, Pending_hits = 0, Reservation_fails = 51752
	L1D_cache_core[57]: Access = 11657, Miss = 11657, Miss_rate = 1.000, Pending_hits = 0, Reservation_fails = 51415
	L1D_cache_core[58]: Access = 13106, Miss = 13106, Miss_rate = 1.000, Pending_hits = 0, Reservation_fails = 52089
	L1D_cache_core[59]: Access = 11061, Miss = 11061, Miss_rate = 1.000, Pending_hits = 0, Reservation_fails = 52854
	L1D_cache_core[60]: Access = 12358, Miss = 12358, Miss_rate = 1.000, Pending_hits = 0, Reservation_fails = 48669
	L1D_cache_core[61]: Access = 11755, Miss = 11755, Miss_rate = 1.000, Pending_hits = 0, Reservation_fails = 52980
	L1D_cache_core[62]: Access = 12351, Miss = 12351, Miss_rate = 1.000, Pending_hits = 0, Reservation_fails = 50876
	L1D_cache_core[63]: Access = 9222, Miss = 9222, Miss_rate = 1.000, Pending_hits = 0, Reservation_fails = 55286
	L1D_cache_core[64]: Access = 10491, Miss = 10491, Miss_rate = 1.000, Pending_hits = 0, Reservation_fails = 49464
	L1D_cache_core[65]: Access = 11154, Miss = 11154, Miss_rate = 1.000, Pending_hits = 0, Reservation_fails = 49379
	L1D_cache_core[66]: Access = 12532, Miss = 12532, Miss_rate = 1.000, Pending_hits = 0, Reservation_fails = 48962
	L1D_cache_core[67]: Access = 11348, Miss = 11348, Miss_rate = 1.000, Pending_hits = 0, Reservation_fails = 47903
	L1D_cache_core[68]: Access = 9988, Miss = 9988, Miss_rate = 1.000, Pending_hits = 0, Reservation_fails = 56808
	L1D_cache_core[69]: Access = 11150, Miss = 11150, Miss_rate = 1.000, Pending_hits = 0, Reservation_fails = 46999
	L1D_cache_core[70]: Access = 11283, Miss = 11283, Miss_rate = 1.000, Pending_hits = 0, Reservation_fails = 47379
	L1D_cache_core[71]: Access = 12271, Miss = 12271, Miss_rate = 1.000, Pending_hits = 0, Reservation_fails = 52165
	L1D_cache_core[72]: Access = 10175, Miss = 10175, Miss_rate = 1.000, Pending_hits = 0, Reservation_fails = 55617
	L1D_cache_core[73]: Access = 12210, Miss = 12210, Miss_rate = 1.000, Pending_hits = 0, Reservation_fails = 51854
	L1D_cache_core[74]: Access = 12659, Miss = 12659, Miss_rate = 1.000, Pending_hits = 0, Reservation_fails = 54856
	L1D_cache_core[75]: Access = 11329, Miss = 11329, Miss_rate = 1.000, Pending_hits = 0, Reservation_fails = 52304
	L1D_cache_core[76]: Access = 13633, Miss = 13633, Miss_rate = 1.000, Pending_hits = 0, Reservation_fails = 48313
	L1D_cache_core[77]: Access = 13522, Miss = 13522, Miss_rate = 1.000, Pending_hits = 0, Reservation_fails = 49868
	L1D_cache_core[78]: Access = 13275, Miss = 13275, Miss_rate = 1.000, Pending_hits = 0, Reservation_fails = 52145
	L1D_cache_core[79]: Access = 10564, Miss = 10564, Miss_rate = 1.000, Pending_hits = 0, Reservation_fails = 55569
	L1D_total_cache_accesses = 943016
	L1D_total_cache_misses = 943016
	L1D_total_cache_miss_rate = 1.0000
	L1D_total_cache_pending_hits = 0
	L1D_total_cache_reservation_fails = 4110705
	L1D_cache_data_port_util = 0.000
	L1D_cache_fill_port_util = 0.090
L1C_cache:
	L1C_total_cache_accesses = 0
	L1C_total_cache_misses = 0
	L1C_total_cache_pending_hits = 0
	L1C_total_cache_reservation_fails = 0
L1T_cache:
	L1T_total_cache_accesses = 0
	L1T_total_cache_misses = 0
	L1T_total_cache_pending_hits = 0
	L1T_total_cache_reservation_fails = 0

Total_core_cache_stats:
	Total_core_cache_stats_breakdown[GLOBAL_ACC_R][HIT] = 0
	Total_core_cache_stats_breakdown[GLOBAL_ACC_R][HIT_RESERVED] = 0
	Total_core_cache_stats_breakdown[GLOBAL_ACC_R][MISS] = 536469
	Total_core_cache_stats_breakdown[GLOBAL_ACC_R][RESERVATION_FAIL] = 2082004
	Total_core_cache_stats_breakdown[GLOBAL_ACC_R][SECTOR_MISS] = 0
	Total_core_cache_stats_breakdown[LOCAL_ACC_R][HIT] = 0
	Total_core_cache_stats_breakdown[LOCAL_ACC_R][HIT_RESERVED] = 0
	Total_core_cache_stats_breakdown[LOCAL_ACC_R][MISS] = 0
	Total_core_cache_stats_breakdown[LOCAL_ACC_R][RESERVATION_FAIL] = 0
	Total_core_cache_stats_breakdown[LOCAL_ACC_R][SECTOR_MISS] = 0
	Total_core_cache_stats_breakdown[CONST_ACC_R][HIT] = 0
	Total_core_cache_stats_breakdown[CONST_ACC_R][HIT_RESERVED] = 0
	Total_core_cache_stats_breakdown[CONST_ACC_R][MISS] = 0
	Total_core_cache_stats_breakdown[CONST_ACC_R][RESERVATION_FAIL] = 0
	Total_core_cache_stats_breakdown[CONST_ACC_R][SECTOR_MISS] = 0
	Total_core_cache_stats_breakdown[TEXTURE_ACC_R][HIT] = 0
	Total_core_cache_stats_breakdown[TEXTURE_ACC_R][HIT_RESERVED] = 0
	Total_core_cache_stats_breakdown[TEXTURE_ACC_R][MISS] = 0
	Total_core_cache_stats_breakdown[TEXTURE_ACC_R][RESERVATION_FAIL] = 0
	Total_core_cache_stats_breakdown[TEXTURE_ACC_R][SECTOR_MISS] = 0
	Total_core_cache_stats_breakdown[GLOBAL_ACC_W][HIT] = 0
	Total_core_cache_stats_breakdown[GLOBAL_ACC_W][HIT_RESERVED] = 0
	Total_core_cache_stats_breakdown[GLOBAL_ACC_W][MISS] = 406547
	Total_core_cache_stats_breakdown[GLOBAL_ACC_W][RESERVATION_FAIL] = 2028701
	Total_core_cache_stats_breakdown[GLOBAL_ACC_W][SECTOR_MISS] = 0
	Total_core_cache_stats_breakdown[LOCAL_ACC_W][HIT] = 0
	Total_core_cache_stats_breakdown[LOCAL_ACC_W][HIT_RESERVED] = 0
	Total_core_cache_stats_breakdown[LOCAL_ACC_W][MISS] = 0
	Total_core_cache_stats_breakdown[LOCAL_ACC_W][RESERVATION_FAIL] = 0
	Total_core_cache_stats_breakdown[LOCAL_ACC_W][SECTOR_MISS] = 0
	Total_core_cache_stats_breakdown[L1_WRBK_ACC][HIT] = 0
	Total_core_cache_stats_breakdown[L1_WRBK_ACC][HIT_RESERVED] = 0
	Total_core_cache_stats_breakdown[L1_WRBK_ACC][MISS] = 0
	Total_core_cache_stats_breakdown[L1_WRBK_ACC][RESERVATION_FAIL] = 0
	Total_core_cache_stats_breakdown[L1_WRBK_ACC][SECTOR_MISS] = 0
	Total_core_cache_stats_breakdown[L2_WRBK_ACC][HIT] = 0
	Total_core_cache_stats_breakdown[L2_WRBK_ACC][HIT_RESERVED] = 0
	Total_core_cache_stats_breakdown[L2_WRBK_ACC][MISS] = 0
	Total_core_cache_stats_breakdown[L2_WRBK_ACC][RESERVATION_FAIL] = 0
	Total_core_cache_stats_breakdown[L2_WRBK_ACC][SECTOR_MISS] = 0
	Total_core_cache_stats_breakdown[INST_ACC_R][HIT] = 0
	Total_core_cache_stats_breakdown[INST_ACC_R][HIT_RESERVED] = 0
	Total_core_cache_stats_breakdown[INST_ACC_R][MISS] = 0
	Total_core_cache_stats_breakdown[INST_ACC_R][RESERVATION_FAIL] = 0
	Total_core_cache_stats_breakdown[INST_ACC_R][SECTOR_MISS] = 0
	Total_core_cache_stats_breakdown[L1_WR_ALLOC_R][HIT] = 0
	Total_core_cache_stats_breakdown[L1_WR_ALLOC_R][HIT_RESERVED] = 0
	Total_core_cache_stats_breakdown[L1_WR_ALLOC_R][MISS] = 0
	Total_core_cache_stats_breakdown[L1_WR_ALLOC_R][RESERVATION_FAIL] = 0
	Total_core_cache_stats_breakdown[L1_WR_ALLOC_R][SECTOR_MISS] = 0
	Total_core_cache_stats_breakdown[L2_WR_ALLOC_R][HIT] = 0
	Total_core_cache_stats_breakdown[L2_WR_ALLOC_R][HIT_RESERVED] = 0
	Total_core_cache_stats_breakdown[L2_WR_ALLOC_R][MISS] = 0
	Total_core_cache_stats_breakdown[L2_WR_ALLOC_R][RESERVATION_FAIL] = 0
	Total_core_cache_stats_breakdown[L2_WR_ALLOC_R][SECTOR_MISS] = 0
	Total_core_cache_stats_breakdown[GLOBAL_ACC_R][TOTAL_ACCESS] = 536469
	Total_core_cache_stats_breakdown[GLOBAL_ACC_W][TOTAL_ACCESS] = 406547

Total_core_cache_fail_stats:
	Total_core_cache_fail_stats_breakdown[GLOBAL_ACC_R][MISS_QUEUE_FULL] = 2082004
	Total_core_cache_fail_stats_breakdown[GLOBAL_ACC_W][MISS_QUEUE_FULL] = 2028701
Shader 0 warp_id issue ditsribution:
warp_id:
0, 1, 2, 3, 4, 5, 6, 7, 8, 9, 10, 11, 12, 13, 14, 15, 16, 17, 18, 19, 20, 21, 22, 23, 24, 25, 26, 27, 28, 29, 30, 31, 32, 33, 34, 35, 36, 37, 38, 39, 40, 41, 42, 43, 
distro:
337, 317, 319, 329, 329, 314, 314, 324, 398, 419, 418, 432, 329, 314, 313, 323, 380, 406, 406, 413, 370, 369, 362, 373, 304, 267, 261, 264, 280, 325, 325, 277, 280, 267, 267, 262, 177, 168, 169, 152, 258, 267, 251, 256, 
gpgpu_n_tot_thrd_icount = 42698688
gpgpu_n_tot_w_icount = 1334334
gpgpu_n_stall_shd_mem = 5362141
gpgpu_n_mem_read_local = 0
gpgpu_n_mem_write_local = 0
gpgpu_n_mem_read_global = 536069
gpgpu_n_mem_write_global = 479727
gpgpu_n_mem_texture = 0
gpgpu_n_mem_const = 0
gpgpu_n_load_insn  = 4296456
gpgpu_n_store_insn = 2860394
gpgpu_n_shmem_insn = 0
gpgpu_n_sstarr_insn = 0
gpgpu_n_tex_insn = 0
gpgpu_n_const_mem_insn = 0
gpgpu_n_param_mem_insn = 447688
gpgpu_n_shmem_bkconflict = 0
gpgpu_n_cache_bkconflict = 0
gpgpu_n_intrawarp_mshr_merge = 0
gpgpu_n_cmem_portconflict = 0
gpgpu_stall_shd_mem[c_mem][resource_stall] = 0
gpgpu_stall_shd_mem[s_mem][bk_conf] = 0
gpgpu_stall_shd_mem[gl_mem][resource_stall] = 4692261
gpgpu_stall_shd_mem[gl_mem][coal_stall] = 72660
gpgpu_stall_shd_mem[gl_mem][data_port_stall] = 0
gpu_reg_bank_conflict_stalls = 0
Warp Occupancy Distribution:
Stall:21184989	W0_Idle:400	W0_Scoreboard:101801	W1:32772	W2:0	W3:0	W4:0	W5:0	W6:0	W7:0	W8:0	W9:0	W10:0	W11:0	W12:0	W13:0	W14:0	W15:0	W16:0	W17:0	W18:0	W19:0	W20:0	W21:0	W22:0	W23:219459	W24:103057	W25:0	W26:0	W27:0	W28:0	W29:0	W30:0	W31:216054	W32:772188
single_issue_nums: WS0:336304	WS1:332783	WS2:337214	WS3:337229	
dual_issue_nums: WS0:0	WS1:0	WS2:0	WS3:0	
traffic_breakdown_coretomem[GLOBAL_ACC_R] = 4288552 {8:536069,}
traffic_breakdown_coretomem[GLOBAL_ACC_W] = 16827256 {8:73807,40:405920,}
traffic_breakdown_memtocore[GLOBAL_ACC_R] = 20361400 {40:509035,}
traffic_breakdown_memtocore[GLOBAL_ACC_W] = 3590400 {8:448800,}
maxmflatency = 15734 
max_icnt2mem_latency = 15570 
maxmrqlatency = 1871 
max_icnt2sh_latency = 451 
averagemflatency = 4861 
avg_icnt2mem_latency = 3902 
avg_mrq_latency = 168 
avg_icnt2sh_latency = 4 
mrq_lat_table:26423 	21088 	10511 	15958 	33771 	92277 	140869 	168395 	97971 	33486 	1785 	0 	0 	0 	0 	0 	0 	0 	0 	0 	0 	0 	0 	0 	0 	0 	0 	0 	0 	0 	0 	0 	
dq_lat_table:0 	0 	0 	0 	0 	0 	0 	0 	0 	0 	0 	0 	0 	0 	0 	0 	0 	0 	0 	0 	0 	0 	0 	0 	0 	0 	0 	0 	0 	0 	0 	0 	
mf_lat_table:0 	0 	0 	0 	0 	0 	0 	0 	1253 	14965 	59200 	271816 	551378 	59211 	0 	0 	0 	0 	0 	0 	0 	0 	0 	0 	0 	0 	0 	0 	0 	0 	0 	0 	
icnt2mem_lat_table:0 	0 	0 	0 	656 	1568 	4344 	12103 	7252 	43540 	112125 	388140 	377895 	22238 	0 	0 	0 	0 	0 	0 	0 	0 	0 	0 	
icnt2sh_lat_table:0 	767822 	94958 	49177 	26670 	13048 	4073 	1719 	356 	0 	0 	0 	0 	0 	0 	0 	0 	0 	0 	0 	0 	0 	0 	0 	
mf_lat_pw_table:0 	0 	0 	0 	0 	0 	0 	0 	0 	2 	2 	12 	124 	0 	0 	0 	0 	0 	0 	0 	0 	0 	0 	0 	0 	0 	0 	0 	0 	0 	0 	0 	
maximum concurrent accesses to same row:
dram[0]:        12        12        16        20        20        20        20        20        20        20        16        12        12        16        12        12 
dram[1]:        11        11        12        12        21        21        21        21        21        21        21        21        11        15        12        15 
dram[2]:        16        12        16        20        20        20        20        20        20        20        16        12        16        16        13        16 
dram[3]:        14        11        14        21        21        21        21        21        21        21        21        21        13        15        12        11 
dram[4]:        12        12        16        20        20        20        20        20        20        20        16        12        12        16        20        16 
dram[5]:        11        11        12        14        21        21        21        21        21        21        21        21        14        15        14        12 
dram[6]:        13        16        16        20        20        20        20        20        20        20        20        12        15        16        16        16 
dram[7]:        14        13        13        13        21        21        21        21        21        21        21        21        11        15        13        15 
dram[8]:        16        12        16        20        20        20        20        20        20        20        16        16        12        16        12        16 
dram[9]:        14        14        12        12        21        21        21        21        21        21        21        21        14        15        14        14 
dram[10]:        16        20        16        20        20        24        20        20        20        20        20        24        24        16        16        16 
dram[11]:        14        14        12        14        21        21        21        21        21        21        21        21        14        15        14        14 
dram[12]:        16        12        16        20        20        20        20        20        20        20        16        20        16        20        16        16 
dram[13]:        17        14        14        12        21        21        21        21        21        21        21        21        11        15        12        15 
dram[14]:        16        16        16        20        20        20        20        20        20        20        16        16        16        16        20        12 
dram[15]:        15        15        12        12        21        21        21        21        21        21        21        21        11        15        15        18 
dram[16]:        12        20        16        20        20        20        20        20        20        20        16        12        12        16        12        16 
dram[17]:        11        17        12        12        21        21        21        21        21        21        21        21        14        15        11        14 
dram[18]:        20        16        16        20        20        20        20        20        20        20        16        12        12        16        16        12 
dram[19]:        18        11        14        12        21        21        21        21        21        21        21        21        11        21        11        11 
dram[20]:        16        16        16        20        20        20        20        20        20        20        16        16        16        16        16        16 
dram[21]:        11        14        15        12        21        21        21        21        21        21        21        21        15        15        11        12 
dram[22]:        16        16        16        20        20        20        20        20        20        20        16        12        16        16        12        16 
dram[23]:        14        17        12        12        21        21        21        21        21        21        21        21        14        15        14        11 
dram[24]:        12        16        16        20        20        20        20        20        20        20        20        12        16        19        12        16 
dram[25]:        18        14        12        12        21        21        21        21        21        21        21        21        11        15        11        11 
dram[26]:        16        16        16        20        20        20        24        20        20        20        16        12        12        16        16        12 
dram[27]:        11        14        12        12        21        21        21        21        21        21        21        21        12        15        11        12 
dram[28]:        24        16        16        20        24        20        20        20        20        20        16        24        12        16        12        16 
dram[29]:        17        14        18        12        21        21        21        21        21        21        21        21        12        15        15        11 
dram[30]:        24        12        16        20        20        20        20        20        20        20        16        16        20        16        12        12 
dram[31]:        21        14        12        15        21        21        21        21        21        21        21        21        24        15        11        15 
maximum service time to same row:
dram[0]:     27600     20223     28307     34994     32859     19367     18830      6216      6545      6602      8000      8080     11908     12941     18440     18595 
dram[1]:     25565     20489     28429     35441     34740     21331     21445     32677      6310      6332      7755      7719     11519     12365     17947     17977 
dram[2]:     27665     19935     33996     33161     30150     33289     31625     27523      6545      6602      8000      8080     11908     12941     18864     18531 
dram[3]:     26468     19374     32818     33234     28958     28870     32426     30261      6310      6332      7755      7719     11519     12365     18439     18175 
dram[4]:     27660     19963     31474     33527     30022     32392     30495     29811      6545      6602      8000      8080     11908     12941     18688     18300 
dram[5]:     26131     19400     31282     34265     29502     33616     32982     30422      6310      6332      7755      7719     11519     12365     17905     17648 
dram[6]:     28585     20866     33285     34763     28446     32974     36213     33362      6545      6602      8000      8080     11908     12941     18392     18346 
dram[7]:     26022     19996     32702     34806     30391     29882     37746     33063      6310      6332      7755      7719     11519     12365     17665     17654 
dram[8]:     27320     19612     36791     36272     31530     32302     28303     32942      6545      6602      8000      8080     11908     12941     17469     15809 
dram[9]:     24217     19261     35137     36699     31813     26611     28668     34200      6310      6332      7755      7719     11519     12365     17268     17215 
dram[10]:     27364     19980     35452     31309     26280     28899     31317     33746      6545      6602      8000      8080     11908     12941     18163     18164 
dram[11]:     25927     20032     35051     32384     28633     30718     35081     33227      6310      6332      7755      7719     11519     12365     18063     17609 
dram[12]:     28663     20152     35248     31086     33073     32283     28768     34041      6545      6602      8000      8080     11908     12941     18310     18135 
dram[13]:     26922     19199     35216     31968     29857     31314     28863     28509      6310      6332      7755      7719     11519     12365     18050     17761 
dram[14]:     26587     19232     35116     33628     33924     20231     27370     28706      6545      6602      8000      8080     11908     12941     18453     18188 
dram[15]:     25381     18324     33529     34726     30709     18308     26517     31696      6310      6332      7755      7719     11519     12365     18505     18126 
dram[16]:     30311     21686     32335     32018     27803     33655     30257     30846      6545      6602      8000      8080     11908     12941     18151     17909 
dram[17]:     29574     21993     32518     33160     29684     32001     29903     29812      6310      6332      7755      7719     11519     12365     18300     18067 
dram[18]:     25236     19461     33399     33929     32113     32120     37428     32467      6545      6602      8000      8080     11908     12941     19402     18970 
dram[19]:     23713     18185     33907     34043     34061     33649     38801     32821      6310      6332      7755      7719     11519     12365     17999     18049 
dram[20]:     24465     18896     33469     32668     31590     33228     34132     36546      6545      8634      8000      8080     11908     12941     18030     17817 
dram[21]:     23437     18812     33699     33363     31605     32429     33449     35995      6310      8036      7755      7719     11519     12365     17950     17855 
dram[22]:     26179     19247     33751     32985     31993     32024     32398     34964      7454      6602      8000      8080     11908     12941     18299     18290 
dram[23]:     25863     17890     34239     33479     30564     33189     33807     34047      7116      6332      7755      7719     11519     12365     18029     18021 
dram[24]:     27850     19480     34455     32671     26129     28590     33110      6216      6545      6602      8000      8080     11908     12941     19274     19386 
dram[25]:     25814     18317     33577     33334     25732     29222     33891     37594      6310      6332      7755      7719     11519     12365     17566     17202 
dram[26]:     25686     19548     35755     35016     30394     27149     32781     36177      6545      6602      8000      8080     11908     12941     18632     18531 
dram[27]:     24946     18051     35790     36401     29519     27717     34580     37891      6310      6332      7755      7719     11519     12365     18113     18093 
dram[28]:     24846     21852     32590     32063     28932     30575     33977     39347      6545      6602      8000      8080     11908     12941     18320     18343 
dram[29]:     24541     20823     33876     33425     27665     30793     33370     37470      6310      7662      7755      7719     11519     12365     18009     17622 
dram[30]:     25300     21332     34598     28404     22737     33715     29047     30573      6545      6602      8000      8080     11908     12941     19689     19755 
dram[31]:     24960     20072     33625     32499     17740     34474     32703     34671      9942      6332      7755      7719     11519     12365     18647     18278 
average row accesses per activate:
dram[0]:  3.283871  3.645485  4.198831  4.358586  5.541985  6.037879  4.585153  4.714912  4.207182  4.361824  3.603774  3.611111  3.413861  3.325626  3.484919  3.592166 
dram[1]:  3.253125  3.279141  3.954082  3.755656  5.287770  5.078948  4.488038  4.314159  3.910145  3.751351  3.491917  3.240664  3.327586  3.068834  3.209932  3.236607 
dram[2]:  3.784247  3.740625  4.609626  4.378378  5.300653  5.675000  4.799087  4.662447  4.084011  4.099463  3.741071  3.644252  3.513238  3.445783  3.667453  3.686183 
dram[3]:  3.415584  3.323529  4.230769  4.022421  5.000000  5.036145  4.625616  4.459821  4.194445  3.875000  3.610451  3.283898  3.334047  2.994318  3.360656  3.343891 
dram[4]:  3.762658  3.775701  4.653465  4.377778  5.619632  5.732919  4.798206  4.663866  4.220056  4.249308  3.856813  3.690265  3.556723  3.616525  3.818402  3.691415 
dram[5]:  3.273273  3.315789  4.137441  3.952991  5.067485  4.970930  4.858586  4.600000  3.982301  3.753387  3.561033  3.393478  3.431072  3.011385  3.427570  3.141053 
dram[6]:  3.858156  3.687919  4.588889  4.500000  5.496599  5.601266  4.429752  4.843750  4.033679  4.096000  3.655391  3.789709  3.444444  3.487854  3.554545  3.707547 
dram[7]:  3.305466  3.192429  3.858536  3.660634  5.167832  5.106667  4.736041  4.604762  3.913545  3.831956  3.385301  3.391304  3.299578  3.063462  3.261959  3.203501 
dram[8]:  3.821549  3.737342  4.766667  4.623188  5.590604  5.626506  4.706666  4.670940  4.002618  4.256338  3.553015  3.661605  3.500000  3.398809  3.676960  3.695550 
dram[9]:  3.473510  3.207101  4.281250  4.023474  5.157895  5.176101  4.684729  4.599057  3.784916  3.812672  3.276231  3.153374  3.208589  3.032567  3.225446  3.144086 
dram[10]:  3.933333  3.854890  4.751269  4.602740  5.704402  5.568965  4.900901  4.875000  4.202740  4.505917  3.665948  3.873853  3.633262  3.505155  3.728337  3.715278 
dram[11]:  3.440252  3.369369  4.095694  4.121622  5.266234  4.954802  4.798029  4.567442  3.924419  3.906780  3.347162  3.409692  3.184959  3.096078  3.342529  3.191083 
dram[12]:  3.592025  3.618012  4.680851  4.623116  6.071429  5.728395  4.868778  4.721739  4.122016  4.298592  3.519427  3.603854  3.507042  3.455645  3.550790  3.504484 
dram[13]:  3.294478  3.265861  3.951923  3.675214  5.152318  5.042683  4.719212  4.490909  3.825352  3.910112  3.418708  3.300429  3.134000  3.059048  3.030992  3.133758 
dram[14]:  3.792208  3.559633  4.489362  4.569307  5.704226  5.980133  4.598326  4.880531  3.982368  4.069149  3.504892  3.602564  3.454545  3.565762  3.699769  3.628175 
dram[15]:  3.328358  3.340361  3.886878  3.652720  4.993865  5.129630  4.463303  4.650943  3.866477  3.802740  3.255814  3.264271  2.986842  3.052023  3.124736  3.173160 
dram[16]:  3.757189  3.758065  4.390244  4.670103  5.397515  5.913333  4.746666  4.714286  4.249300  4.190083  3.504167  3.432377  3.428858  3.434608  3.622172  3.799043 
dram[17]:  3.264881  3.318750  3.738532  3.726457  4.961290  5.493055  4.483568  4.424657  3.936782  3.893557  3.294872  3.212371  2.897436  2.973881  3.070539  3.146497 
dram[18]:  3.584665  3.708197  4.300000  4.494898  5.539474  5.908451  4.825688  4.760870  4.445428  4.090667  3.624464  3.587234  3.338521  3.426035  3.750000  3.599068 
dram[19]:  3.061765  3.226006  3.784689  3.839623  4.934640  5.428571  4.529126  4.638095  3.827778  3.896358  3.238994  3.307856  2.875912  3.003738  3.083682  3.116525 
dram[20]:  3.585761  3.667753  4.507692  4.524753  5.387500  5.910345  4.981308  4.869955  4.429824  4.529586  3.727273  3.665217  3.588358  3.432866  3.594470  3.605505 
dram[21]:  3.253777  3.188450  3.879070  3.779817  4.748503  5.342658  4.507109  4.646226  3.968116  3.845730  3.233193  3.251572  3.085271  2.973978  3.012121  3.024793 
dram[22]:  3.630094  3.847458  4.565657  4.472907  5.381250  5.647436  4.921296  4.805310  4.217877  4.184066  3.623404  3.481405  3.547718  3.562500  3.552339  3.639081 
dram[23]:  3.192878  3.346032  3.786730  3.885167  5.107383  5.284722  4.466667  4.611374  4.005917  3.915254  3.334773  3.127016  3.039924  3.065637  3.128151  3.096154 
dram[24]:  3.783972  3.825623  4.617978  4.653631  5.802920  6.348837  4.782805  4.765487  4.305322  4.143631  3.612632  3.590234  3.518293  3.472617  3.521445  3.561772 
dram[25]:  3.212963  3.231270  3.861386  3.974093  5.301471  5.950819  4.543689  4.274336  3.872159  3.762162  3.277542  3.246862  3.003767  2.966292  2.963265  3.027542 
dram[26]:  3.887755  3.672026  4.482412  4.708791  5.361963  5.649351  4.808889  4.730435  4.235294  4.163043  3.725664  3.663755  3.522634  3.602537  3.528474  3.661137 
dram[27]:  3.303797  3.264151  3.701422  3.700483  5.130137  5.411347  4.747525  4.599057  3.919771  3.785326  3.445434  3.316129  2.979401  3.150602  3.086957  3.034115 
dram[28]:  3.664495  3.726351  4.323383  4.462766  5.815603  5.776224  4.894977  4.967890  4.244382  4.256983  3.733333  3.791946  3.570248  3.450000  3.580645  3.663507 
dram[29]:  3.267913  3.137500  3.758294  3.808081  5.134752  5.333333  4.795000  4.783251  3.887955  3.910364  3.442478  3.262500  3.166667  2.988571  3.109409  3.221219 
dram[30]:  3.669811  3.836066  4.444976  4.475247  5.695364  5.509317  4.642241  4.884444  3.997368  4.037135  3.702820  3.582278  3.477733  3.531959  3.573733  3.694639 
dram[31]:  3.286154  3.275542  3.814480  3.909091  5.183673  5.220000  4.485981  4.590698  3.859944  3.797260  3.227557  3.113546  3.275154  2.964286  3.076271  3.105832 
average row locality = 642534/170663 = 3.764929
number of total memory accesses made:
dram[0]:         0         0         0         0         0         0         0         0         0         0         0         0         0         0         0         0 
dram[1]:         0         0         0         0         0         0         0         0         0         0         0         0         0         0         0         0 
dram[2]:         0         0         0         0         0         0         0         0         0         0         0         0         0         0         0         0 
dram[3]:         0         0         0         0         0         0         0         0         0         0         0         0         0         0         0         0 
dram[4]:         0         0         0         0         0         0         0         0         0         0         0         0         0         0         0         0 
dram[5]:         0         0         0         0         0         0         0         0         0         0         0         0         0         0         0         0 
dram[6]:         0         0         0         0         0         0         0         0         0         0         0         0         0         0         0         0 
dram[7]:         0         0         0         0         0         0         0         0         0         0         0         0         0         0         0         0 
dram[8]:         0         0         0         0         0         0         0         0         0         0         0         0         0         0         0         0 
dram[9]:         0         0         0         0         0         0         0         0         0         0         0         0         0         0         0         0 
dram[10]:         0         0         0         0         0         0         0         0         0         0         0         0         0         0         0         0 
dram[11]:         0         0         0         0         0         0         0         0         0         0         0         0         0         0         0         0 
[...]
Either_Row_CoL_Bus_Util = 0.638186 
Issued_on_Two_Bus_Simul_Util = 0.106071 
issued_two_Eff = 0.166207 
queue_avg = 41.403725 


dram_util_bins: 0 0 0 0 0 0 0 0 0 0
dram_eff_bins: 0 0 0 0 0 0 0 0 0 0
mrqq: max=64 avg=41.4037
Memory Partition 28: 
Cache L2_bank_056:

Cache L2_bank_057:

In Dram Latency Queue (total = 87): 
DRAM[28]: 16 bks, busW=16 BL=2 CL=12, tRRD=3 tCCD=1, tRCD=12 tRAS=28 tRP=12 tRC=40
n_cmd=56858 n_nop=19934 n_act=5161 n_pre=5147 n_ref_event=0 n_req=20728 n_rd=16637 n_rd_L2_A=0 n_write=0 n_wr_bk=16228 bw_util=0.578
n_activity=50500 dram_eff=0.6508
bk0: 904a 39372i bk1: 888a 40005i bk2: 766a 46454i bk3: 760a 46188i bk4: 766a 49985i bk5: 768a 49955i bk6: 917a 46408i bk7: 928a 46029i bk8: 1216a 38452i bk9: 1224a 37868i bk10: 1280a 31620i bk11: 1280a 31222i bk12: 1280a 28642i bk13: 1276a 28926i bk14: 1188a 32608i bk15: 1196a 32871i 

------------------------------------------------------------------------

Row_Buffer_Locality = 0.750531
Row_Buffer_Locality_read = 0.812260
Row_Buffer_Locality_write = 0.497537
Bank_Level_Parallism = 6.058286
Bank_Level_Parallism_Col = 4.075220
Bank_Level_Parallism_Ready = 1.814666
write_to_read_ratio_blp_rw_average = 0.462967
GrpLevelPara = 2.919234 

BW Util details:
bwutil = 0.578019 
total_CMD = 56858 
util_bw = 32865 
Wasted_Col = 16157 
Wasted_Row = 1127 
Idle = 6709 

BW Util Bottlenecks: 
RCDc_limit = 14118 
RCDWRc_limit = 7111 
WTRc_limit = 9705 
RTWc_limit = 20197 
CCDLc_limit = 11037 
rwq = 0 
CCDLc_limit_alone = 9006 
WTRc_limit_alone = 8883 
RTWc_limit_alone = 18988 

Commands details: 
total_CMD = 56858 
n_nop = 19934 
Read = 16637 
Write = 0 
L2_Alloc = 0 
L2_WB = 16228 
n_act = 5161 
n_pre = 5147 
n_ref = 0 
n_req = 20728 
total_req = 32865 

Dual Bus Interface Util: 
issued_total_row = 10308 
issued_total_col = 32865 
Row_Bus_Util =  0.181294 
CoL_Bus_Util = 0.578019 
Either_Row_CoL_Bus_Util = 0.649407 
Issued_on_Two_Bus_Simul_Util = 0.109905 
issued_two_Eff = 0.169240 
queue_avg = 40.984398 


dram_util_bins: 0 0 0 0 0 0 0 0 0 0
dram_eff_bins: 0 0 0 0 0 0 0 0 0 0
mrqq: max=64 avg=40.9844
Memory Partition 29: 
Cache L2_bank_058:

Cache L2_bank_059:

In Dram Latency Queue (total = 30): 
DRAM[29]: 16 bks, busW=16 BL=2 CL=12, tRRD=3 tCCD=1, tRCD=12 tRAS=28 tRP=12 tRC=40
n_cmd=56858 n_nop=20371 n_act=5306 n_pre=5291 n_ref_event=0 n_req=18916 n_rd=14549 n_rd_L2_A=0 n_write=0 n_wr_bk=17432 bw_util=0.5625
n_activity=50461 dram_eff=0.6338
bk0: 801a 38522i bk1: 769a 39442i bk2: 667a 45668i bk3: 664a 46547i bk4: 670a 50291i bk5: 677a 49900i bk6: 809a 45870i bk7: 816a 47077i bk8: 1064a 38321i bk9: 1071a 38378i bk10: 1120a 31481i bk11: 1120a 30012i bk12: 1120a 28027i bk13: 1113a 28950i bk14: 1027a 29861i bk15: 1041a 31417i 

------------------------------------------------------------------------

Row_Buffer_Locality = 0.719340
Row_Buffer_Locality_read = 0.796014
Row_Buffer_Locality_write = 0.463409
Bank_Level_Parallism = 6.160786
Bank_Level_Parallism_Col = 4.076896
Bank_Level_Parallism_Ready = 1.828054
write_to_read_ratio_blp_rw_average = 0.506525
GrpLevelPara = 2.909177 

BW Util details:
bwutil = 0.562471 
total_CMD = 56858 
util_bw = 31981 
Wasted_Col = 16804 
Wasted_Row = 1350 
Idle = 6723 

BW Util Bottlenecks: 
RCDc_limit = 14389 
RCDWRc_limit = 8810 
WTRc_limit = 9862 
RTWc_limit = 23094 
CCDLc_limit = 10498 
rwq = 0 
CCDLc_limit_alone = 8551 
WTRc_limit_alone = 9071 
RTWc_limit_alone = 21938 

Commands details: 
total_CMD = 56858 
n_nop = 20371 
Read = 14549 
Write = 0 
L2_Alloc = 0 
L2_WB = 17432 
n_act = 5306 
n_pre = 5291 
n_ref = 0 
n_req = 18916 
total_req = 31981 

Dual Bus Interface Util: 
issued_total_row = 10597 
issued_total_col = 31981 
Row_Bus_Util =  0.186377 
CoL_Bus_Util = 0.562471 
Either_Row_CoL_Bus_Util = 0.641721 
Issued_on_Two_Bus_Simul_Util = 0.107127 
issued_two_Eff = 0.166936 
queue_avg = 40.593811 


dram_util_bins: 0 0 0 0 0 0 0 0 0 0
dram_eff_bins: 0 0 0 0 0 0 0 0 0 0
mrqq: max=64 avg=40.5938
Memory Partition 30: 
Cache L2_bank_060:

Cache L2_bank_061:

In Dram Latency Queue (total = 171): 
DRAM[30]: 16 bks, busW=16 BL=2 CL=12, tRRD=3 tCCD=1, tRCD=12 tRAS=28 tRP=12 tRC=40
n_cmd=56858 n_nop=19348 n_act=5334 n_pre=5319 n_ref_event=0 n_req=21170 n_rd=17072 n_rd_L2_A=0 n_write=0 n_wr_bk=16104 bw_util=0.5835
n_activity=52226 dram_eff=0.6352
bk0: 952a 38435i bk1: 960a 38239i bk2: 832a 44984i bk3: 812a 45102i bk4: 808a 49069i bk5: 828a 48681i bk6: 928a 45623i bk7: 936a 45183i bk8: 1216a 37165i bk9: 1224a 36271i bk10: 1280a 30191i bk11: 1280a 28290i bk12: 1280a 27282i bk13: 1280a 27581i bk14: 1224a 30701i bk15: 1232a 29677i 

------------------------------------------------------------------------

Row_Buffer_Locality = 0.747133
Row_Buffer_Locality_read = 0.812602
Row_Buffer_Locality_write = 0.469727
Bank_Level_Parallism = 6.323582
Bank_Level_Parallism_Col = 4.322452
Bank_Level_Parallism_Ready = 1.752110
write_to_read_ratio_blp_rw_average = 0.466624
GrpLevelPara = 2.976118 

BW Util details:
bwutil = 0.583489 
total_CMD = 56858 
util_bw = 33176 
Wasted_Col = 17633 
Wasted_Row = 1116 
Idle = 4933 

BW Util Bottlenecks: 
RCDc_limit = 14723 
RCDWRc_limit = 7940 
WTRc_limit = 12126 
RTWc_limit = 28721 
CCDLc_limit = 12302 
rwq = 0 
CCDLc_limit_alone = 9685 
WTRc_limit_alone = 11127 
RTWc_limit_alone = 27103 

Commands details: 
total_CMD = 56858 
n_nop = 19348 
Read = 17072 
Write = 0 
L2_Alloc = 0 
L2_WB = 16104 
n_act = 5334 
n_pre = 5319 
n_ref = 0 
n_req = 21170 
total_req = 33176 

Dual Bus Interface Util: 
issued_total_row = 10653 
issued_total_col = 33176 
Row_Bus_Util =  0.187361 
CoL_Bus_Util = 0.583489 
Either_Row_CoL_Bus_Util = 0.659714 
Issued_on_Two_Bus_Simul_Util = 0.111137 
issued_two_Eff = 0.168462 
queue_avg = 45.610115 


dram_util_bins: 0 0 0 0 0 0 0 0 0 0
dram_eff_bins: 0 0 0 0 0 0 0 0 0 0
mrqq: max=64 avg=45.6101
Memory Partition 31: 
Cache L2_bank_062:

Cache L2_bank_063:

In Dram Latency Queue (total = 175): 
DRAM[31]: 16 bks, busW=16 BL=2 CL=12, tRRD=3 tCCD=1, tRCD=12 tRAS=28 tRP=12 tRC=40
n_cmd=56858 n_nop=20068 n_act=5457 n_pre=5443 n_ref_event=0 n_req=19277 n_rd=14924 n_rd_L2_A=0 n_write=0 n_wr_bk=17122 bw_util=0.5636
n_activity=51769 dram_eff=0.619
bk0: 830a 38120i bk1: 835a 37899i bk2: 727a 44943i bk3: 717a 45184i bk4: 703a 49654i bk5: 729a 48739i bk6: 812a 46604i bk7: 823a 46077i bk8: 1064a 37577i bk9: 1071a 37783i bk10: 1120a 30508i bk11: 1120a 30091i bk12: 1120a 28041i bk13: 1120a 26512i bk14: 1072a 30384i bk15: 1061a 30607i 

------------------------------------------------------------------------

Row_Buffer_Locality = 0.715765
Row_Buffer_Locality_read = 0.793006
Row_Buffer_Locality_write = 0.446674
Bank_Level_Parallism = 6.214633
Bank_Level_Parallism_Col = 4.145851
Bank_Level_Parallism_Ready = 1.770081
write_to_read_ratio_blp_rw_average = 0.477559
GrpLevelPara = 2.913043 

BW Util details:
bwutil = 0.563615 
total_CMD = 56858 
util_bw = 32046 
Wasted_Col = 17957 
Wasted_Row = 1522 
Idle = 5333 

BW Util Bottlenecks: 
RCDc_limit = 15319 
RCDWRc_limit = 8934 
WTRc_limit = 12586 
RTWc_limit = 24533 
CCDLc_limit = 11623 
rwq = 0 
CCDLc_limit_alone = 9240 
WTRc_limit_alone = 11571 
RTWc_limit_alone = 23165 

Commands details: 
total_CMD = 56858 
n_nop = 20068 
Read = 14924 
Write = 0 
L2_Alloc = 0 
L2_WB = 17122 
n_act = 5457 
n_pre = 5443 
n_ref = 0 
n_req = 19277 
total_req = 32046 

Dual Bus Interface Util: 
issued_total_row = 10900 
issued_total_col = 32046 
Row_Bus_Util =  0.191706 
CoL_Bus_Util = 0.563615 
Either_Row_CoL_Bus_Util = 0.647051 
Issued_on_Two_Bus_Simul_Util = 0.108270 
issued_two_Eff = 0.167328 
queue_avg = 43.564213 


dram_util_bins: 0 0 0 0 0 0 0 0 0 0
dram_eff_bins: 0 0 0 0 0 0 0 0 0 0
mrqq: max=64 avg=43.5642

========= L2 cache stats =========
L2_cache_bank[0]: Access = 13707, Miss = 13321, Miss_rate = 0.972, Pending_hits = 0, Reservation_fails = 3015
L2_cache_bank[1]: Access = 14455, Miss = 13985, Miss_rate = 0.967, Pending_hits = 0, Reservation_fails = 2524
L2_cache_bank[2]: Access = 13026, Miss = 12644, Miss_rate = 0.971, Pending_hits = 0, Reservation_fails = 1797
L2_cache_bank[3]: Access = 13431, Miss = 12941, Miss_rate = 0.964, Pending_hits = 0, Reservation_fails = 1649
L2_cache_bank[4]: Access = 14233, Miss = 13831, Miss_rate = 0.972, Pending_hits = 0, Reservation_fails = 1433
L2_cache_bank[5]: Access = 14904, Miss = 14429, Miss_rate = 0.968, Pending_hits = 0, Reservation_fails = 3338
L2_cache_bank[6]: Access = 13415, Miss = 12995, Miss_rate = 0.969, Pending_hits = 0, Reservation_fails = 2154
L2_cache_bank[7]: Access = 13654, Miss = 13170, Miss_rate = 0.965, Pending_hits = 0, Reservation_fails = 2453
L2_cache_bank[8]: Access = 14852, Miss = 14409, Miss_rate = 0.970, Pending_hits = 0, Reservation_fails = 3157
L2_cache_bank[9]: Access = 14959, Miss = 14485, Miss_rate = 0.968, Pending_hits = 0, Reservation_fails = 1764
L2_cache_bank[10]: Access = 13507, Miss = 13062, Miss_rate = 0.967, Pending_hits = 0, Reservation_fails = 2854
L2_cache_bank[11]: Access = 13777, Miss = 13294, Miss_rate = 0.965, Pending_hits = 0, Reservation_fails = 2195
L2_cache_bank[12]: Access = 14289, Miss = 13854, Miss_rate = 0.970, Pending_hits = 0, Reservation_fails = 2117
L2_cache_bank[13]: Access = 14570, Miss = 14079, Miss_rate = 0.966, Pending_hits = 0, Reservation_fails = 2239
L2_cache_bank[14]: Access = 13195, Miss = 12761, Miss_rate = 0.967, Pending_hits = 0, Reservation_fails = 1352
L2_cache_bank[15]: Access = 13250, Miss = 12762, Miss_rate = 0.963, Pending_hits = 0, Reservation_fails = 1467
L2_cache_bank[16]: Access = 14310, Miss = 13897, Miss_rate = 0.971, Pending_hits = 0, Reservation_fails = 912
L2_cache_bank[17]: Access = 14967, Miss = 14493, Miss_rate = 0.968, Pending_hits = 0, Reservation_fails = 2858
L2_cache_bank[18]: Access = 13365, Miss = 12948, Miss_rate = 0.969, Pending_hits = 0, Reservation_fails = 1152
L2_cache_bank[19]: Access = 13587, Miss = 13122, Miss_rate = 0.966, Pending_hits = 0, Reservation_fails = 1133
L2_cache_bank[20]: Access = 14666, Miss = 14230, Miss_rate = 0.970, Pending_hits = 0, Reservation_fails = 611
L2_cache_bank[21]: Access = 15107, Miss = 14629, Miss_rate = 0.968, Pending_hits = 0, Reservation_fails = 2763
L2_cache_bank[22]: Access = 13449, Miss = 13033, Miss_rate = 0.969, Pending_hits = 0, Reservation_fails = 818
L2_cache_bank[23]: Access = 13802, Miss = 13313, Miss_rate = 0.965, Pending_hits = 0, Reservation_fails = 1733
L2_cache_bank[24]: Access = 14438, Miss = 13982, Miss_rate = 0.968, Pending_hits = 0, Reservation_fails = 890
L2_cache_bank[25]: Access = 14908, Miss = 14431, Miss_rate = 0.968, Pending_hits = 0, Reservation_fails = 2489
L2_cache_bank[26]: Access = 13334, Miss = 12893, Miss_rate = 0.967, Pending_hits = 0, Reservation_fails = 1121
L2_cache_bank[27]: Access = 13678, Miss = 13187, Miss_rate = 0.964, Pending_hits = 0, Reservation_fails = 1971
L2_cache_bank[28]: Access = 14033, Miss = 13596, Miss_rate = 0.969, Pending_hits = 0, Reservation_fails = 1365
L2_cache_bank[29]: Access = 14604, Miss = 14152, Miss_rate = 0.969, Pending_hits = 0, Reservation_fails = 2107
L2_cache_bank[30]: Access = 13403, Miss = 12944, Miss_rate = 0.966, Pending_hits = 0, Reservation_fails = 593
L2_cache_bank[31]: Access = 13500, Miss = 13031, Miss_rate = 0.965, Pending_hits = 0, Reservation_fails = 1166
L2_cache_bank[32]: Access = 14536, Miss = 14073, Miss_rate = 0.968, Pending_hits = 0, Reservation_fails = 223
L2_cache_bank[33]: Access = 14623, Miss = 14162, Miss_rate = 0.968, Pending_hits = 0, Reservation_fails = 1207
L2_cache_bank[34]: Access = 13386, Miss = 12921, Miss_rate = 0.965, Pending_hits = 0, Reservation_fails = 0
L2_cache_bank[35]: Access = 13555, Miss = 13067, Miss_rate = 0.964, Pending_hits = 0, Reservation_fails = 1178
L2_cache_bank[36]: Access = 14301, Miss = 13832, Miss_rate = 0.967, Pending_hits = 0, Reservation_fails = 978
L2_cache_bank[37]: Access = 14541, Miss = 14054, Miss_rate = 0.967, Pending_hits = 0, Reservation_fails = 719
L2_cache_bank[38]: Access = 13219, Miss = 12763, Miss_rate = 0.966, Pending_hits = 0, Reservation_fails = 373
L2_cache_bank[39]: Access = 13425, Miss = 12933, Miss_rate = 0.963, Pending_hits = 0, Reservation_fails = 1320
L2_cache_bank[40]: Access = 14560, Miss = 14089, Miss_rate = 0.968, Pending_hits = 0, Reservation_fails = 15
L2_cache_bank[41]: Access = 14743, Miss = 14264, Miss_rate = 0.968, Pending_hits = 0, Reservation_fails = 1697
L2_cache_bank[42]: Access = 13525, Miss = 13056, Miss_rate = 0.965, Pending_hits = 0, Reservation_fails = 2102
L2_cache_bank[43]: Access = 13499, Miss = 13008, Miss_rate = 0.964, Pending_hits = 0, Reservation_fails = 15
L2_cache_bank[44]: Access = 14728, Miss = 14246, Miss_rate = 0.967, Pending_hits = 0, Reservation_fails = 485
L2_cache_bank[45]: Access = 14728, Miss = 14252, Miss_rate = 0.968, Pending_hits = 0, Reservation_fails = 1612
L2_cache_bank[46]: Access = 13412, Miss = 12936, Miss_rate = 0.965, Pending_hits = 0, Reservation_fails = 713
L2_cache_bank[47]: Access = 13433, Miss = 12952, Miss_rate = 0.964, Pending_hits = 0, Reservation_fails = 1609
L2_cache_bank[48]: Access = 14423, Miss = 13950, Miss_rate = 0.967, Pending_hits = 0, Reservation_fails = 1263
L2_cache_bank[49]: Access = 14425, Miss = 13956, Miss_rate = 0.967, Pending_hits = 0, Reservation_fails = 1831
L2_cache_bank[50]: Access = 13284, Miss = 12829, Miss_rate = 0.966, Pending_hits = 0, Reservation_fails = 288
L2_cache_bank[51]: Access = 13219, Miss = 12751, Miss_rate = 0.965, Pending_hits = 0, Reservation_fails = 1445
L2_cache_bank[52]: Access = 14592, Miss = 14123, Miss_rate = 0.968, Pending_hits = 0, Reservation_fails = 382
L2_cache_bank[53]: Access = 14395, Miss = 13939, Miss_rate = 0.968, Pending_hits = 0, Reservation_fails = 530
L2_cache_bank[54]: Access = 13302, Miss = 12828, Miss_rate = 0.964, Pending_hits = 0, Reservation_fails = 845
L2_cache_bank[55]: Access = 13134, Miss = 12672, Miss_rate = 0.965, Pending_hits = 0, Reservation_fails = 2807
L2_cache_bank[56]: Access = 14422, Miss = 13939, Miss_rate = 0.967, Pending_hits = 0, Reservation_fails = 771
L2_cache_bank[57]: Access = 14358, Miss = 13887, Miss_rate = 0.967, Pending_hits = 0, Reservation_fails = 766
L2_cache_bank[58]: Access = 13150, Miss = 12673, Miss_rate = 0.964, Pending_hits = 0, Reservation_fails = 1094
L2_cache_bank[59]: Access = 13060, Miss = 12592, Miss_rate = 0.964, Pending_hits = 0, Reservation_fails = 396
L2_cache_bank[60]: Access = 14644, Miss = 14180, Miss_rate = 0.968, Pending_hits = 0, Reservation_fails = 592
L2_cache_bank[61]: Access = 14700, Miss = 14236, Miss_rate = 0.968, Pending_hits = 0, Reservation_fails = 1947
L2_cache_bank[62]: Access = 13441, Miss = 12961, Miss_rate = 0.964, Pending_hits = 0, Reservation_fails = 1943
L2_cache_bank[63]: Access = 13413, Miss = 12946, Miss_rate = 0.965, Pending_hits = 0, Reservation_fails = 1453
L2_total_cache_accesses = 894551
L2_total_cache_misses = 864973
L2_total_cache_miss_rate = 0.9669
L2_total_cache_pending_hits = 0
L2_total_cache_reservation_fails = 91789
L2_total_cache_breakdown:
	L2_cache_stats_breakdown[GLOBAL_ACC_R][HIT] = 0
	L2_cache_stats_breakdown[GLOBAL_ACC_R][HIT_RESERVED] = 0
	L2_cache_stats_breakdown[GLOBAL_ACC_R][MISS] = 137320
	L2_cache_stats_breakdown[GLOBAL_ACC_R][RESERVATION_FAIL] = 91789
	L2_cache_stats_breakdown[GLOBAL_ACC_R][SECTOR_MISS] = 377947
	L2_cache_stats_breakdown[LOCAL_ACC_R][HIT] = 0
	L2_cache_stats_breakdown[LOCAL_ACC_R][HIT_RESERVED] = 0
	L2_cache_stats_breakdown[LOCAL_ACC_R][MISS] = 0
	L2_cache_stats_breakdown[LOCAL_ACC_R][RESERVATION_FAIL] = 0
	L2_cache_stats_breakdown[LOCAL_ACC_R][SECTOR_MISS] = 0
	L2_cache_stats_breakdown[CONST_ACC_R][HIT] = 0
	L2_cache_stats_breakdown[CONST_ACC_R][HIT_RESERVED] = 0
	L2_cache_stats_breakdown[CONST_ACC_R][MISS] = 0
	L2_cache_stats_breakdown[CONST_ACC_R][RESERVATION_FAIL] = 0
	L2_cache_stats_breakdown[CONST_ACC_R][SECTOR_MISS] = 0
	L2_cache_stats_breakdown[TEXTURE_ACC_R][HIT] = 0
	L2_cache_stats_breakdown[TEXTURE_ACC_R][HIT_RESERVED] = 0
	L2_cache_stats_breakdown[TEXTURE_ACC_R][MISS] = 0
	L2_cache_stats_breakdown[TEXTURE_ACC_R][RESERVATION_FAIL] = 0
	L2_cache_stats_breakdown[TEXTURE_ACC_R][SECTOR_MISS] = 0
	L2_cache_stats_breakdown[GLOBAL_ACC_W][HIT] = 29578
	L2_cache_stats_breakdown[GLOBAL_ACC_W][HIT_RESERVED] = 0
	L2_cache_stats_breakdown[GLOBAL_ACC_W][MISS] = 89969
	L2_cache_stats_breakdown[GLOBAL_ACC_W][RESERVATION_FAIL] = 0
	L2_cache_stats_breakdown[GLOBAL_ACC_W][SECTOR_MISS] = 259737
	L2_cache_stats_breakdown[LOCAL_ACC_W][HIT] = 0
	L2_cache_stats_breakdown[LOCAL_ACC_W][HIT_RESERVED] = 0
	L2_cache_stats_breakdown[LOCAL_ACC_W][MISS] = 0
	L2_cache_stats_breakdown[LOCAL_ACC_W][RESERVATION_FAIL] = 0
	L2_cache_stats_breakdown[LOCAL_ACC_W][SECTOR_MISS] = 0
	L2_cache_stats_breakdown[L1_WRBK_ACC][HIT] = 0
	L2_cache_stats_breakdown[L1_WRBK_ACC][HIT_RESERVED] = 0
	L2_cache_stats_breakdown[L1_WRBK_ACC][MISS] = 0
	L2_cache_stats_breakdown[L1_WRBK_ACC][RESERVATION_FAIL] = 0
	L2_cache_stats_breakdown[L1_WRBK_ACC][SECTOR_MISS] = 0
	L2_cache_stats_breakdown[L2_WRBK_ACC][HIT] = 0
	L2_cache_stats_breakdown[L2_WRBK_ACC][HIT_RESERVED] = 0
	L2_cache_stats_breakdown[L2_WRBK_ACC][MISS] = 0
	L2_cache_stats_breakdown[L2_WRBK_ACC][RESERVATION_FAIL] = 0
	L2_cache_stats_breakdown[L2_WRBK_ACC][SECTOR_MISS] = 0
	L2_cache_stats_breakdown[INST_ACC_R][HIT] = 0
	L2_cache_stats_breakdown[INST_ACC_R][HIT_RESERVED] = 0
	L2_cache_stats_breakdown[INST_ACC_R][MISS] = 0
	L2_cache_stats_breakdown[INST_ACC_R][RESERVATION_FAIL] = 0
	L2_cache_stats_breakdown[INST_ACC_R][SECTOR_MISS] = 0
	L2_cache_stats_breakdown[L1_WR_ALLOC_R][HIT] = 0
	L2_cache_stats_breakdown[L1_WR_ALLOC_R][HIT_RESERVED] = 0
	L2_cache_stats_breakdown[L1_WR_ALLOC_R][MISS] = 0
	L2_cache_stats_breakdown[L1_WR_ALLOC_R][RESERVATION_FAIL] = 0
	L2_cache_stats_breakdown[L1_WR_ALLOC_R][SECTOR_MISS] = 0
	L2_cache_stats_breakdown[L2_WR_ALLOC_R][HIT] = 0
	L2_cache_stats_breakdown[L2_WR_ALLOC_R][HIT_RESERVED] = 0
	L2_cache_stats_breakdown[L2_WR_ALLOC_R][MISS] = 0
	L2_cache_stats_breakdown[L2_WR_ALLOC_R][RESERVATION_FAIL] = 0
	L2_cache_stats_breakdown[L2_WR_ALLOC_R][SECTOR_MISS] = 0
	L2_cache_stats_breakdown[GLOBAL_ACC_R][TOTAL_ACCESS] = 515267
	L2_cache_stats_breakdown[GLOBAL_ACC_W][TOTAL_ACCESS] = 379284
L2_total_cache_reservation_fail_breakdown:
	L2_cache_stats_fail_breakdown[GLOBAL_ACC_R][MSHR_ENRTY_FAIL] = 91789
L2_cache_data_port_util = 0.006
L2_cache_fill_port_util = 0.105

icnt_total_pkts_mem_to_simt=957835
icnt_total_pkts_simt_to_mem=1015796
LD_mem_lat_dist  0 0 0 0 0 0 0 0 0 0 0 0 0 0 0 0 0 0 0 0 0 0 0 0 0 0 0
ST_mem_lat_dist  0 0 0 0 0 0 0 0 0 0 0 0 0 0 0 0 0 0 0 0 0 0 0 0 0 0 0
----------------------------Interconnect-DETAILS--------------------------------
Req_Network_injected_packets_num = 1015796
Req_Network_cycles = 75722
Req_Network_injected_packets_per_cycle =      13.4148 
Req_Network_conflicts_per_cycle =      57.4495
Req_Network_conflicts_per_cycle_util =      61.6558
Req_Bank_Level_Parallism =      13.8170
Req_Network_in_buffer_full_per_cycle =      63.6307
Req_Network_in_buffer_avg_util =     472.3055
Req_Network_out_buffer_full_per_cycle =       5.1942
Req_Network_out_buffer_avg_util =     170.5648

Reply_Network_injected_packets_num = 957863
Reply_Network_cycles = 75722
Reply_Network_injected_packets_per_cycle =       12.6497
Reply_Network_conflicts_per_cycle =        3.4477
Reply_Network_conflicts_per_cycle_util =       3.8295
Reply_Bank_Level_Parallism =      14.0503
Reply_Network_in_buffer_full_per_cycle =       0.0000
Reply_Network_in_buffer_avg_util =       0.5460
Reply_Network_out_buffer_full_per_cycle =       0.0000
Reply_Network_out_buffer_avg_util =       0.1581
----------------------------END-of-Interconnect-DETAILS-------------------------


gpgpu_simulation_time = 0 days, 0 hrs, 12 min, 2 sec (722 sec)
gpgpu_simulation_rate = 53335 (inst/sec)
gpgpu_simulation_rate = 104 (cycle/sec)
gpgpu_silicon_slowdown = 10884615x
GPGPU-Sim: *** simulation thread exiting ***
GPGPU-Sim: ** break due to reaching the maximum cycles (or instructions) **
GPGPU-Sim: *** exit detected ***
