

        *** GPGPU-Sim Simulator Version 4.0.0  [build gpgpu-sim_git-commit-ffe0a1a00e984ecce9bf36e17ab94c4de0de8108_modified_0.0] ***


GPGPU-Sim PTX: simulation mode 0 (can change with PTX_SIM_MODE_FUNC environment variable:
               1=functional simulation only, 0=detailed performance simulator)
GPGPU-Sim PTX: overriding embedded ptx with ptx file (PTX_SIM_USE_PTX_FILE is set)
GPGPU-Sim: Configuration options:

-save_embedded_ptx                      0 # saves ptx files embedded in binary as <n>.ptx
-keep                                   0 # keep intermediate files created by GPGPU-Sim when interfacing with external programs
-gpgpu_ptx_save_converted_ptxplus                    0 # Saved converted ptxplus to a file
-gpgpu_occupancy_sm_number                   70 # The SM number to pass to ptxas when getting register usage for computing GPU occupancy. This parameter is required in the config.
-ptx_opcode_latency_int      4,13,4,5,145,21 # Opcode latencies for integers <ADD,MAX,MUL,MAD,DIV,SHFL>Default 1,1,19,25,145,32
-ptx_opcode_latency_fp          4,13,4,5,39 # Opcode latencies for single precision floating points <ADD,MAX,MUL,MAD,DIV>Default 1,1,1,1,30
-ptx_opcode_latency_dp         8,19,8,8,330 # Opcode latencies for double precision floating points <ADD,MAX,MUL,MAD,DIV>Default 8,8,8,8,335
-ptx_opcode_latency_sfu                  100 # Opcode latencies for SFU instructionsDefault 8
-ptx_opcode_latency_tesnor                   64 # Opcode latencies for Tensor instructionsDefault 64
-ptx_opcode_initiation_int          2,2,2,2,8,4 # Opcode initiation intervals for integers <ADD,MAX,MUL,MAD,DIV,SHFL>Default 1,1,4,4,32,4
-ptx_opcode_initiation_fp            2,2,2,2,4 # Opcode initiation intervals for single precision floating points <ADD,MAX,MUL,MAD,DIV>Default 1,1,1,1,5
-ptx_opcode_initiation_dp          4,4,4,4,130 # Opcode initiation intervals for double precision floating points <ADD,MAX,MUL,MAD,DIV>Default 8,8,8,8,130
-ptx_opcode_initiation_sfu                    8 # Opcode initiation intervals for sfu instructionsDefault 8
-ptx_opcode_initiation_tensor                   64 # Opcode initiation intervals for tensor instructionsDefault 64
-cdp_latency         7200,8000,100,12000,1600 # CDP API latency <cudaStreamCreateWithFlags, cudaGetParameterBufferV2_init_perWarp, cudaGetParameterBufferV2_perKernel, cudaLaunchDeviceV2_init_perWarp, cudaLaunchDevicV2_perKernel>Default 7200,8000,100,12000,1600
-network_mode                           2 # Interconnection network mode
-inter_config_file                   mesh # Interconnection network config file
-icnt_in_buffer_limit                  512 # in_buffer_limit
-icnt_out_buffer_limit                  512 # out_buffer_limit
-icnt_subnets                           2 # subnets
-icnt_arbiter_algo                      1 # arbiter_algo
-icnt_verbose                           0 # inct_verbose
-icnt_grant_cycles                      1 # grant_cycles
-gpgpu_ptx_use_cuobjdump                    1 # Use cuobjdump to extract ptx and sass from binaries
-gpgpu_experimental_lib_support                    0 # Try to extract code from cuda libraries [Broken because of unknown cudaGetExportTable]
-checkpoint_option                      0 #  checkpointing flag (0 = no checkpoint)
-checkpoint_kernel                      1 #  checkpointing during execution of which kernel (1- 1st kernel)
-checkpoint_CTA                         0 #  checkpointing after # of CTA (< less than total CTA)
-resume_option                          0 #  resume flag (0 = no resume)
-resume_kernel                          0 #  Resume from which kernel (1= 1st kernel)
-resume_CTA                             0 #  resume from which CTA 
-checkpoint_CTA_t                       0 #  resume from which CTA 
-checkpoint_insn_Y                      0 #  resume from which CTA 
-gpgpu_ptx_convert_to_ptxplus                    0 # Convert SASS (native ISA) to ptxplus and run ptxplus
-gpgpu_ptx_force_max_capability                   70 # Force maximum compute capability
-gpgpu_ptx_inst_debug_to_file                    0 # Dump executed instructions' debug information to file
-gpgpu_ptx_inst_debug_file       inst_debug.txt # Executed instructions' debug output file
-gpgpu_ptx_inst_debug_thread_uid                    1 # Thread UID for executed instructions' debug output
-gpgpu_n_mem_for_l2wb_pcommit                   32 # number of memory modules (e.g. memory controllers) in gpu
-gpgpu_n_sub_partition_per_mchannel_for_l2wb_pcommit                    2 # number of memory subpartition in each memory module
-gpgpu_dl2_bsize_for_l2wb_pcommit                  128 # default 128 bytes
-gpgpu_simd_model                       1 # 1 = post-dominator
-gpgpu_shader_core_pipeline              2048:32 # shader core pipeline config, i.e., {<nthread>:<warpsize>}
-gpgpu_tex_cache:l1  N:4:128:256,L:R:m:N:L,T:512:8,128:2 # per-shader L1 texture cache  (READ-ONLY) config  {<nsets>:<bsize>:<assoc>,<rep>:<wr>:<alloc>:<wr_alloc>,<mshr>:<N>:<merge>,<mq>:<rf>}
-gpgpu_const_cache:l1 N:128:64:8,L:R:f:N:L,S:2:64,4 # per-shader L1 constant memory cache  (READ-ONLY) config  {<nsets>:<bsize>:<assoc>,<rep>:<wr>:<alloc>:<wr_alloc>,<mshr>:<N>:<merge>,<mq>} 
-gpgpu_cache:il1     N:64:128:16,L:R:f:N:L,S:2:48,4 # shader L1 instruction cache config  {<nsets>:<bsize>:<assoc>,<rep>:<wr>:<alloc>:<wr_alloc>,<mshr>:<N>:<merge>,<mq>} 
-gpgpu_cache:dl1     S:1:128:256,L:L:s:N:L,A:256:8,16:0,32 # per-shader L1 data cache config  {<nsets>:<bsize>:<assoc>,<rep>:<wr>:<alloc>:<wr_alloc>,<mshr>:<N>:<merge>,<mq> | none}
-gpgpu_l1_banks                         4 # The number of L1 cache banks
-gpgpu_l1_banks_byte_interleaving                   32 # l1 banks byte interleaving granularity
-gpgpu_l1_banks_hashing_function                    0 # l1 banks hashing function
-gpgpu_l1_latency                      20 # L1 Hit Latency
-gpgpu_smem_latency                    20 # smem Latency
-gpgpu_cache:dl1PrefL1                 none # per-shader L1 data cache config  {<nsets>:<bsize>:<assoc>,<rep>:<wr>:<alloc>:<wr_alloc>,<mshr>:<N>:<merge>,<mq> | none}
-gpgpu_cache:dl1PrefShared                 none # per-shader L1 data cache config  {<nsets>:<bsize>:<assoc>,<rep>:<wr>:<alloc>:<wr_alloc>,<mshr>:<N>:<merge>,<mq> | none}
-gpgpu_gmem_skip_L1D                    0 # global memory access skip L1D cache (implements -Xptxas -dlcm=cg, default=no skip)
-gpgpu_perfect_mem                      0 # enable perfect memory mode (no cache miss)
-n_regfile_gating_group                    4 # group of lanes that should be read/written together)
-gpgpu_clock_gated_reg_file                    0 # enable clock gated reg file for power calculations
-gpgpu_clock_gated_lanes                    0 # enable clock gated lanes for power calculations
-gpgpu_shader_registers                65536 # Number of registers per shader core. Limits number of concurrent CTAs. (default 8192)
-gpgpu_registers_per_block                65536 # Maximum number of registers per CTA. (default 8192)
-gpgpu_ignore_resources_limitation                    0 # gpgpu_ignore_resources_limitation (default 0)
-gpgpu_shader_cta                      32 # Maximum number of concurrent CTAs in shader (default 8)
-gpgpu_num_cta_barriers                   16 # Maximum number of named barriers per CTA (default 16)
-gpgpu_n_clusters                      80 # number of processing clusters
-gpgpu_n_cores_per_cluster                    1 # number of simd cores per cluster
-gpgpu_n_cluster_ejection_buffer_size                   32 # number of packets in ejection buffer
-gpgpu_n_ldst_response_buffer_size                    2 # number of response packets in ld/st unit ejection buffer
-gpgpu_shmem_per_block                65536 # Size of shared memory per thread block or CTA (default 48kB)
-gpgpu_shmem_size                   98304 # Size of shared memory per shader core (default 16kB)
-gpgpu_adaptive_cache_config            536870913 # adaptive_cache_config
-gpgpu_shmem_sizeDefault                98304 # Size of shared memory per shader core (default 16kB)
-gpgpu_shmem_size_PrefL1                16384 # Size of shared memory per shader core (default 16kB)
-gpgpu_shmem_size_PrefShared                16384 # Size of shared memory per shader core (default 16kB)
-gpgpu_shmem_num_banks                   32 # Number of banks in the shared memory in each shader core (default 16)
-gpgpu_shmem_limited_broadcast                    0 # Limit shared memory to do one broadcast per cycle (default on)
-gpgpu_shmem_warp_parts                    1 # Number of portions a warp is divided into for shared memory bank conflict check 
-gpgpu_mem_unit_ports                    1 # The number of memory transactions allowed per core cycle
-gpgpu_shmem_warp_parts                    1 # Number of portions a warp is divided into for shared memory bank conflict check 
-gpgpu_warpdistro_shader                   -1 # Specify which shader core to collect the warp size distribution from
-gpgpu_warp_issue_shader                    0 # Specify which shader core to collect the warp issue distribution from
-gpgpu_local_mem_map                    1 # Mapping from local memory space address to simulated GPU physical address space (default = enabled)
-gpgpu_num_reg_banks                   16 # Number of register banks (default = 8)
-gpgpu_reg_bank_use_warp_id                    0 # Use warp ID in mapping registers to banks (default = off)
-gpgpu_sub_core_model                    1 # Sub Core Volta/Pascal model (default = off)
-gpgpu_enable_specialized_operand_collector                    0 # enable_specialized_operand_collector
-gpgpu_operand_collector_num_units_sp                    4 # number of collector units (default = 4)
-gpgpu_operand_collector_num_units_dp                    0 # number of collector units (default = 0)
-gpgpu_operand_collector_num_units_sfu                    4 # number of collector units (default = 4)
-gpgpu_operand_collector_num_units_int                    0 # number of collector units (default = 0)
-gpgpu_operand_collector_num_units_tensor_core                    4 # number of collector units (default = 4)
-gpgpu_operand_collector_num_units_mem                    2 # number of collector units (default = 2)
-gpgpu_operand_collector_num_units_gen                    8 # number of collector units (default = 0)
-gpgpu_operand_collector_num_in_ports_sp                    1 # number of collector unit in ports (default = 1)
-gpgpu_operand_collector_num_in_ports_dp                    0 # number of collector unit in ports (default = 0)
-gpgpu_operand_collector_num_in_ports_sfu                    1 # number of collector unit in ports (default = 1)
-gpgpu_operand_collector_num_in_ports_int                    0 # number of collector unit in ports (default = 0)
-gpgpu_operand_collector_num_in_ports_tensor_core                    1 # number of collector unit in ports (default = 1)
-gpgpu_operand_collector_num_in_ports_mem                    1 # number of collector unit in ports (default = 1)
-gpgpu_operand_collector_num_in_ports_gen                    8 # number of collector unit in ports (default = 0)
-gpgpu_operand_collector_num_out_ports_sp                    1 # number of collector unit in ports (default = 1)
-gpgpu_operand_collector_num_out_ports_dp                    0 # number of collector unit in ports (default = 0)
-gpgpu_operand_collector_num_out_ports_sfu                    1 # number of collector unit in ports (default = 1)
-gpgpu_operand_collector_num_out_ports_int                    0 # number of collector unit in ports (default = 0)
-gpgpu_operand_collector_num_out_ports_tensor_core                    1 # number of collector unit in ports (default = 1)
-gpgpu_operand_collector_num_out_ports_mem                    1 # number of collector unit in ports (default = 1)
-gpgpu_operand_collector_num_out_ports_gen                    8 # number of collector unit in ports (default = 0)
-gpgpu_coalesce_arch                   60 # Coalescing arch (GT200 = 13, Fermi = 20)
-gpgpu_num_sched_per_core                    4 # Number of warp schedulers per core
-gpgpu_max_insn_issue_per_warp                    1 # Max number of instructions that can be issued per warp in one cycle by scheduler (either 1 or 2)
-gpgpu_dual_issue_diff_exec_units                    1 # should dual issue use two different execution unit resources (Default = 1)
-gpgpu_simt_core_sim_order                    1 # Select the simulation order of cores in a cluster (0=Fix, 1=Round-Robin)
-gpgpu_pipeline_widths 4,4,4,4,4,4,4,4,4,4,8,4,4 # Pipeline widths ID_OC_SP,ID_OC_DP,ID_OC_INT,ID_OC_SFU,ID_OC_MEM,OC_EX_SP,OC_EX_DP,OC_EX_INT,OC_EX_SFU,OC_EX_MEM,EX_WB,ID_OC_TENSOR_CORE,OC_EX_TENSOR_CORE
-gpgpu_tensor_core_avail                    1 # Tensor Core Available (default=0)
-gpgpu_num_sp_units                     4 # Number of SP units (default=1)
-gpgpu_num_dp_units                     4 # Number of DP units (default=0)
-gpgpu_num_int_units                    4 # Number of INT units (default=0)
-gpgpu_num_sfu_units                    4 # Number of SF units (default=1)
-gpgpu_num_tensor_core_units                    4 # Number of tensor_core units (default=1)
-gpgpu_num_mem_units                    1 # Number if ldst units (default=1) WARNING: not hooked up to anything
-gpgpu_scheduler                      gto # Scheduler configuration: < lrr | gto | two_level_active > If two_level_active:<num_active_warps>:<inner_prioritization>:<outer_prioritization>For complete list of prioritization values see shader.h enum scheduler_prioritization_typeDefault: gto
-gpgpu_concurrent_kernel_sm                    0 # Support concurrent kernels on a SM (default = disabled)
-gpgpu_perfect_inst_const_cache                    1 # perfect inst and const cache mode, so all inst and const hits in the cache(default = disabled)
-gpgpu_inst_fetch_throughput                    4 # the number of fetched intruction per warp each cycle
-gpgpu_reg_file_port_throughput                    2 # the number ports of the register file
-specialized_unit_1         0,4,4,4,4,BRA # specialized unit config {<enabled>,<num_units>:<latency>:<initiation>,<ID_OC_SPEC>:<OC_EX_SPEC>,<NAME>}
-specialized_unit_2         0,4,4,4,4,BRA # specialized unit config {<enabled>,<num_units>:<latency>:<initiation>,<ID_OC_SPEC>:<OC_EX_SPEC>,<NAME>}
-specialized_unit_3         0,4,4,4,4,BRA # specialized unit config {<enabled>,<num_units>:<latency>:<initiation>,<ID_OC_SPEC>:<OC_EX_SPEC>,<NAME>}
-specialized_unit_4         0,4,4,4,4,BRA # specialized unit config {<enabled>,<num_units>:<latency>:<initiation>,<ID_OC_SPEC>:<OC_EX_SPEC>,<NAME>}
-specialized_unit_5         0,4,4,4,4,BRA # specialized unit config {<enabled>,<num_units>:<latency>:<initiation>,<ID_OC_SPEC>:<OC_EX_SPEC>,<NAME>}
-specialized_unit_6         0,4,4,4,4,BRA # specialized unit config {<enabled>,<num_units>:<latency>:<initiation>,<ID_OC_SPEC>:<OC_EX_SPEC>,<NAME>}
-specialized_unit_7         0,4,4,4,4,BRA # specialized unit config {<enabled>,<num_units>:<latency>:<initiation>,<ID_OC_SPEC>:<OC_EX_SPEC>,<NAME>}
-specialized_unit_8         0,4,4,4,4,BRA # specialized unit config {<enabled>,<num_units>:<latency>:<initiation>,<ID_OC_SPEC>:<OC_EX_SPEC>,<NAME>}
-gpgpu_perf_sim_memcpy                    1 # Fill the L2 cache on memcpy
-gpgpu_simple_dram_model                    0 # simple_dram_model with fixed latency and BW
-gpgpu_dram_scheduler                    1 # 0 = fifo, 1 = FR-FCFS (defaul)
-gpgpu_dram_partition_queues          64:64:64:64 # i2$:$2d:d2$:$2i
-l2_ideal                               0 # Use a ideal L2 cache that always hit
-gpgpu_cache:dl2     S:32:128:24,L:B:m:L:P,A:192:4,32:0,32 # unified banked L2 data cache config  {<nsets>:<bsize>:<assoc>,<rep>:<wr>:<alloc>:<wr_alloc>,<mshr>:<N>:<merge>,<mq>}
-gpgpu_cache:dl2_texture_only                    0 # L2 cache used for texture only
-gpgpu_n_mem                           32 # number of memory modules (e.g. memory controllers) in gpu
-gpgpu_n_sub_partition_per_mchannel                    2 # number of memory subpartition in each memory module
-gpgpu_n_mem_per_ctrlr                    1 # number of memory chips per memory controller
-gpgpu_memlatency_stat                   14 # track and display latency statistics 0x2 enables MC, 0x4 enables queue logs
-gpgpu_frfcfs_dram_sched_queue_size                   64 # 0 = unlimited (default); # entries per chip
-gpgpu_dram_return_queue_size                  192 # 0 = unlimited (default); # entries per chip
-gpgpu_dram_buswidth                   16 # default = 4 bytes (8 bytes per cycle at DDR)
-gpgpu_dram_burst_length                    2 # Burst length of each DRAM request (default = 4 data bus cycle)
-dram_data_command_freq_ratio                    2 # Frequency ratio between DRAM data bus and command bus (default = 2 times, i.e. DDR)
-gpgpu_dram_timing_opt nbk=16:CCD=1:RRD=3:RCD=12:RAS=28:RP=12:RC=40: CL=12:WL=2:CDLR=3:WR=10:nbkgrp=4:CCDL=2:RTPL=3 # DRAM timing parameters = {nbk:tCCD:tRRD:tRCD:tRAS:tRP:tRC:CL:WL:tCDLR:tWR:nbkgrp:tCCDL:tRTPL}
-gpgpu_l2_rop_latency                  160 # ROP queue latency (default 85)
-dram_latency                         200 # DRAM latency (default 30)
-dram_write_latency                   600 # DRAM write latency (default 100)
-dram_dual_bus_interface                    1 # dual_bus_interface (default = 0) 
-dram_bnk_indexing_policy                    0 # dram_bnk_indexing_policy (0 = normal indexing, 1 = Xoring with the higher bits) (Default = 0)
-dram_bnkgrp_indexing_policy                    1 # dram_bnkgrp_indexing_policy (0 = take higher bits, 1 = take lower bits) (Default = 0)
-dram_seperate_write_queue_enable                    0 # Seperate_Write_Queue_Enable
-dram_write_queue_size             32:28:16 # Write_Queue_Size
-dram_elimnate_rw_turnaround                    0 # elimnate_rw_turnaround i.e set tWTR and tRTW = 0
-icnt_flit_size                        40 # icnt_flit_size
-gpgpu_mem_addr_mapping dramid@8;00000000.00000000.00000000.00000000.0000RRRR.RRRRRRRR.RBBBCCCB.CCCSSSSS # mapping memory address to dram model {dramid@<start bit>;<memory address map>}
-gpgpu_mem_addr_test                    0 # run sweep test to check address mapping for aliased address
-gpgpu_mem_address_mask                    1 # 0 = old addressing mask, 1 = new addressing mask, 2 = new add. mask + flipped bank sel and chip sel bits
-gpgpu_memory_partition_indexing                    0 # 0 = no indexing, 1 = bitwise xoring, 2 = IPoly, 3 = custom indexing
-gpuwattch_xml_file         gpuwattch.xml # GPUWattch XML file
-power_simulation_enabled                    0 # Turn on power simulator (1=On, 0=Off)
-power_per_cycle_dump                    0 # Dump detailed power output each cycle
-power_trace_enabled                    0 # produce a file for the power trace (1=On, 0=Off)
-power_trace_zlevel                     6 # Compression level of the power trace output log (0=no comp, 9=highest)
-steady_power_levels_enabled                    0 # produce a file for the steady power levels (1=On, 0=Off)
-steady_state_definition                  8:4 # allowed deviation:number of samples
-gpgpu_max_cycle                        0 # terminates gpu simulation early (0 = no limit)
-gpgpu_max_insn                         0 # terminates gpu simulation early (0 = no limit)
-gpgpu_max_cta                          0 # terminates gpu simulation early (0 = no limit)
-gpgpu_max_completed_cta                 1000 # terminates gpu simulation early (0 = no limit)
-gpgpu_runtime_stat                   500 # display runtime statistics such as dram utilization {<freq>:<flag>}
-liveness_message_freq                    1 # Minimum number of seconds between simulation liveness messages (0 = always print)
-gpgpu_compute_capability_major                    7 # Major compute capability version number
-gpgpu_compute_capability_minor                    0 # Minor compute capability version number
-gpgpu_flush_l1_cache                    1 # Flush L1 cache at the end of each kernel call
-gpgpu_flush_l2_cache                    0 # Flush L2 cache at the end of each kernel call
-gpgpu_deadlock_detect                    1 # Stop the simulation at deadlock (1=on (default), 0=off)
-gpgpu_ptx_instruction_classification                    0 # if enabled will classify ptx instruction types per kernel (Max 255 kernels now)
-gpgpu_ptx_sim_mode                     0 # Select between Performance (default) or Functional simulation (1)
-gpgpu_clock_domains 1132.0:1132.0:1132.0:850.0 # Clock Domain Frequencies in MhZ {<Core Clock>:<ICNT Clock>:<L2 Clock>:<DRAM Clock>}
-gpgpu_max_concurrent_kernel                    8 # maximum kernels that can run concurrently on GPU
-gpgpu_cflog_interval                    0 # Interval between each snapshot in control flow logger
-visualizer_enabled               200f3ff8827e85c83ff3eefb99f59c8c  /home/pli11/Videos/parboil_benchmark/parboil/benchmarks/lbm/build/nvm_default/lbm
Extracting PTX file and ptxas options    1: lbm.1.sm_70.ptx -arch=sm_70
Extracting PTX file and ptxas options    2: lbm.2.sm_70.ptx -arch=sm_70
      0 # Turn on visualizer output (1=On, 0=Off)
-visualizer_outputfile                 NULL # Specifies the output log file for visualizer
-visualizer_zlevel                      6 # Compression level of the visualizer output log (0=no comp, 9=highest)
-gpgpu_stack_size_limit                 1024 # GPU thread stack size
-gpgpu_heap_size_limit              8388608 # GPU malloc heap size 
-gpgpu_runtime_sync_depth_limit                    2 # GPU device runtime synchronize depth
-gpgpu_runtime_pending_launch_count_limit                 2048 # GPU device runtime pending launch count
-trace_enabled                          0 # Turn on traces
-trace_components                    none # comma seperated list of traces to enable. Complete list found in trace_streams.tup. Default none
-trace_sampling_core                    0 # The core which is printed using CORE_DPRINTF. Default 0
-trace_sampling_memory_partition                   -1 # The memory partition which is printed using MEMPART_DPRINTF. Default -1 (i.e. all)
-enable_ptx_file_line_stats                    1 # Turn on PTX source line statistic profiling. (1 = On)
-ptx_line_stats_filename gpgpu_inst_stats.txt # Output file for PTX source line statistics.
-gpgpu_kernel_launch_latency                 5000 # Kernel launch latency in cycles. Default: 0
-gpgpu_cdp_enabled                      0 # Turn on CDP
-gpgpu_TB_launch_latency                    0 # thread block launch latency in cycles. Default: 0
DRAM Timing Options:
nbk                                    16 # number of banks
CCD                                     1 # column to column delay
RRD                                     3 # minimal delay between activation of rows in different banks
RCD                                    12 # row to column delay
RAS                                    28 # time needed to activate row
RP                                     12 # time needed to precharge (deactivate) row
RC                                     40 # row cycle time
CDLR                                    3 # switching from write to read (changes tWTR)
WR                                     10 # last data-in to row precharge
CL                                     12 # CAS latency
WL                                      2 # Write latency
nbkgrp                                  4 # number of bank groups
CCDL                                    2 # column to column delay between accesses to different bank groups
RTPL                                    3 # read to precharge delay between accesses to different bank groups
Total number of memory sub partition = 64
addr_dec_mask[CHIP]  = 0000000000001f00 	high:13 low:8
addr_dec_mask[BK]    = 00000000000e2000 	high:20 low:13
addr_dec_mask[ROW]   = 00000001fff00000 	high:33 low:20
addr_dec_mask[COL]   = 000000000001c0ff 	high:17 low:0
addr_dec_mask[BURST] = 000000000000001f 	high:5 low:0
sub_partition_id_mask = 0000000000002000
GPGPU-Sim uArch: clock freqs: 1132000000.000000:1132000000.000000:1132000000.000000:850000000.000000
GPGPU-Sim uArch: clock periods: 0.00000000088339222615:0.00000000088339222615:0.00000000088339222615:0.00000000117647058824
*** Initializing Memory Statistics ***
GPGPU-Sim uArch: performance model initialization complete.
self exe links to: /home/pli11/Videos/parboil_benchmark/parboil/benchmarks/lbm/build/nvm_default/lbm
self exe links to: /home/pli11/Videos/parboil_benchmark/parboil/benchmarks/lbm/build/nvm_default/lbm
10.1
GPGPU-Sim PTX: __cudaRegisterFatBinary, fat_cubin_handle = 1, filename=default
self exe links to: /home/pli11/Videos/parboil_benchmark/parboil/benchmarks/lbm/build/nvm_default/lbm
Running md5sum using "md5sum /home/pli11/Videos/parboil_benchmark/parboil/benchmarks/lbm/build/nvm_default/lbm "
self exe links to: /home/pli11/Videos/parboil_benchmark/parboil/benchmarks/lbm/build/nvm_default/lbm
Extracting specific PTX file named lbm.1.sm_70.ptx 
Extracting specific PTX file named lbm.2.sm_70.ptx 
self exe links to: /home/pli11/Videos/parboil_benchmark/parboil/benchmarks/lbm/build/nvm_default/lbm
self exe links to: /home/pli11/Videos/parboil_benchmark/parboil/benchmarks/lbm/build/nvm_default/lbm
10.1
GPGPU-Sim PTX: __cudaRegisterFatBinary, fat_cubin_handle = 2, filename=default
GPGPU-Sim PTX: __cudaRegisterFunction _Z32performStreamCollide_kernel_nvm2PfS_ : hostFun 0x0x405bab, fat_cubin_handle = 2
GPGPU-Sim PTX: Parsing lbm.1.sm_70.ptx
GPGPU-Sim PTX: finished parsing EMBEDDED .ptx file lbm.1.sm_70.ptx
GPGPU-Sim PTX: Parsing lbm.2.sm_70.ptx
GPGPU-Sim PTX: allocating global region for "NVM_log" from 0x100 to 0x4000100 (global memory space)
GPGPU-Sim PTX: allocating global region for "NVM_flag" from 0x4000100 to 0x4400100 (global memory space)
GPGPU-Sim PTX: instruction assembly for function '_Z32performStreamCollide_kernel_nvmgPfS_'...   done.
GPGPU-Sim PTX: instruction assembly for function '_Z32performStreamCollide_kernel_nvmiPfS_'...   done.
GPGPU-Sim PTX: instruction assembly for function '_Z32performStreamCollide_kernel_nvm3PfS_'...   done.
GPGPU-Sim PTX: instruction assembly for function '_Z32performStreamCollide_kernel_nvm4PfS_'...   done.
GPGPU-Sim PTX: instruction assembly for function '_Z32performStreamCollide_kernel_nvm5PfS_'...   done.
GPGPU-Sim PTX: instruction assembly for function '_Z32performStreamCollide_kernel_nvm6PfS_'...   done.
GPGPU-Sim PTX: instruction assembly for function '_Z27performStreamCollide_kernelPfS_'...   done.
GPGPU-Sim PTX: instruction assembly for function '_Z32performStreamCollide_kernel_nvmoPfS_'...   done.
GPGPU-Sim PTX: instruction assembly for function '_Z32performStreamCollide_kernel_nvmwPfS_'...   done.
GPGPU-Sim PTX: instruction assembly for function '_Z32performStreamCollide_kernel_nvmqPfS_'...   done.
GPGPU-Sim PTX: instruction assembly for function '_Z32performStreamCollide_kernel_nvmuPfS_'...   done.
GPGPU-Sim PTX: instruction assembly for function '_Z32performStreamCollide_kernel_nvmbPfS_'...   done.
GPGPU-Sim PTX: instruction assembly for function '_Z32performStreamCollide_kernel_nvmjPfS_'...   done.
GPGPU-Sim PTX: instruction assembly for function '_Z32performStreamCollide_kernel_nvmdPfS_'...   done.
GPGPU-Sim PTX: instruction assembly for function '_Z32performStreamCollide_kernel_nvmlPfS_'...   done.
GPGPU-Sim PTX: instruction assembly for function '_Z32performStreamCollide_kernel_nvm1PfS_'...   done.
GPGPU-Sim PTX: instruction assembly for function '_Z32performStreamCollide_kernel_nvm2PfS_'...   done.
GPGPU-Sim PTX: finished parsing EMBEDDED .ptx file lbm.2.sm_70.ptx
GPGPU-Sim PTX: loading globals with explicit initializers... 
GPGPU-Sim PTX: finished loading globals (0 bytes total).
GPGPU-Sim PTX: loading constants with explicit initializers...  done.
GPGPU-Sim PTX: Loading PTXInfo from lbm.1.sm_70.ptx
GPGPU-Sim PTX: Loading PTXInfo from lbm.2.sm_70.ptx
GPGPU-Sim PTX: Kernel '_Z32performStreamCollide_kernel_nvm2PfS_' : regs=44, lmem=0, smem=0, cmem=368
GPGPU-Sim PTX: Kernel '_Z32performStreamCollide_kernel_nvm1PfS_' : regs=44, lmem=0, smem=0, cmem=368
GPGPU-Sim PTX: Kernel '_Z32performStreamCollide_kernel_nvmlPfS_' : regs=40, lmem=0, smem=0, cmem=368
GPGPU-Sim PTX: Kernel '_Z32performStreamCollide_kernel_nvmdPfS_' : regs=40, lmem=0, smem=0, cmem=368
GPGPU-Sim PTX: Kernel '_Z32performStreamCollide_kernel_nvmjPfS_' : regs=40, lmem=0, smem=0, cmem=368
GPGPU-Sim PTX: Kernel '_Z32performStreamCollide_kernel_nvmbPfS_' : regs=40, lmem=0, smem=0, cmem=368
GPGPU-Sim PTX: Kernel '_Z32performStreamCollide_kernel_nvmuPfS_' : regs=40, lmem=0, smem=0, cmem=368
GPGPU-Sim PTX: Kernel '_Z32performStreamCollide_kernel_nvmqPfS_' : regs=40, lmem=0, smem=0, cmem=368
GPGPU-Sim PTX: Kernel '_Z32performStreamCollide_kernel_nvmwPfS_' : regs=40, lmem=0, smem=0, cmem=368
GPGPU-Sim PTX: Kernel '_Z32performStreamCollide_kernel_nvmoPfS_' : regs=40, lmem=0, smem=0, cmem=368
GPGPU-Sim PTX: Kernel '_Z27performStreamCollide_kernelPfS_' : regs=40, lmem=0, smem=0, cmem=368
GPGPU-Sim PTX: Kernel '_Z32performStreamCollide_kernel_nvm6PfS_' : regs=44, lmem=0, smem=0, cmem=368
GPGPU-Sim PTX: Kernel '_Z32performStreamCollide_kernel_nvm5PfS_' : regs=44, lmem=0, smem=0, cmem=368
GPGPU-Sim PTX: Kernel '_Z32performStreamCollide_kernel_nvm4PfS_' : regs=56, lmem=0, smem=0, cmem=368
GPGPU-Sim PTX: Kernel '_Z32performStreamCollide_kernel_nvm3PfS_' : regs=56, lmem=0, smem=0, cmem=368
GPGPU-Sim PTX: Kernel '_Z32performStreamCollide_kernel_nvmiPfS_' : regs=48, lmem=0, smem=0, cmem=368
GPGPU-Sim PTX: Kernel '_Z32performStreamCollide_kernel_nvmgPfS_' : regs=48, lmem=0, smem=0, cmem=368
GPGPU-Sim PTX: __cudaRegisterFunction _Z32performStreamCollide_kernel_nvm1PfS_ : hostFun 0x0x405a6b, fat_cubin_handle = 2
GPGPU-Sim PTX: __cudaRegisterFunction _Z32performStreamCollide_kernel_nvmlPfS_ : hostFun 0x0x40592b, fat_cubin_handle = 2
GPGPU-Sim PTX: __cudaRegisterFunction _Z32performStreamCollide_kernel_nvmdPfS_ : hostFun 0x0x4057eb, fat_cubin_handle = 2
GPGPU-Sim PTX: __cudaRegisterFunction _Z32performStreamCollide_kernel_nvmjPfS_ : hostFun 0x0x4056ab, fat_cubin_handle = 2
GPGPU-Sim PTX: __cudaRegisterFunction _Z32performStreamCollide_kernel_nvmbPfS_ : hostFun 0x0x40556b, fat_cubin_handle = 2
GPGPU-Sim PTX: __cudaRegisterFunction _Z32performStreamCollide_kernel_nvmuPfS_ : hostFun 0x0x40542b, fat_cubin_handle = 2
GPGPU-Sim PTX: __cudaRegisterFunction _Z32performStreamCollide_kernel_nvmqPfS_ : hostFun 0x0x4052eb, fat_cubin_handle = 2
GPGPU-Sim PTX: __cudaRegisterFunction _Z32performStreamCollide_kernel_nvmwPfS_ : hostFun 0x0x4051ab, fat_cubin_handle = 2
GPGPU-Sim PTX: __cudaRegisterFunction _Z32performStreamCollide_kernel_nvmoPfS_ : hostFun 0x0x40506b, fat_cubin_handle = 2
GPGPU-Sim PTX: __cudaRegisterFunction _Z27performStreamCollide_kernelPfS_ : hostFun 0x0x404f2b, fat_cubin_handle = 2
GPGPU-Sim PTX: __cudaRegisterFunction _Z32performStreamCollide_kernel_nvm6PfS_ : hostFun 0x0x404deb, fat_cubin_handle = 2
GPGPU-Sim PTX: __cudaRegisterFunction _Z32performStreamCollide_kernel_nvm5PfS_ : hostFun 0x0x404cab, fat_cubin_handle = 2
GPGPU-Sim PTX: __cudaRegisterFunction _Z32performStreamCollide_kernel_nvm4PfS_ : hostFun 0x0x404b6b, fat_cubin_handle = 2
GPGPU-Sim PTX: __cudaRegisterFunction _Z32performStreamCollide_kernel_nvm3PfS_ : hostFun 0x0x404a2b, fat_cubin_handle = 2
GPGPU-Sim PTX: __cudaRegisterFunction _Z32performStreamCollide_kernel_nvmiPfS_ : hostFun 0x0x4048eb, fat_cubin_handle = 2
GPGPU-Sim PTX: __cudaRegisterFunction _Z32performStreamCollide_kernel_nvmgPfS_ : hostFun 0x0x4047ab, fat_cubin_handle = 2
GPGPU-Sim PTX: __cudaRegisterVar: hostVar = 0x60f380; deviceAddress = NVM_log; deviceName = NVM_log
GPGPU-Sim PTX: __cudaRegisterVar: Registering const memory space of 67108864 bytes
GPGPU-Sim PTX registering global NVM_log hostVar to name mapping
GPGPU-Sim PTX: __cudaRegisterVar: hostVar = 0x460f380; deviceAddress = NVM_flag; deviceName = NVM_flag
GPGPU-Sim PTX: __cudaRegisterVar: Registering const memory space of 4194304 bytes
GPGPU-Sim PTX registering global NVM_flag hostVar to name mapping
LBM_allocateGrid: allocated 185.2 MByte
MAIN_printInfo:
	grid size      : 120 x 120 x 150 = 2.16 * 10^6 Cells
	nTimeSteps     : 3000
	result file    : /home/pli11/Videos/parboil_benchmark/parboil/benchmarks/lbm/run/long/reference.dat
	action         : store
	simulation type: lid-driven cavity
	obstacle file  : /home/pli11/Videos/parboil_benchmark/parboil/datasets/lbm/long/input/120_120_150_ldc.of

LBM_allocateGrid: allocated 185.2 MByte
LBM_allocateGrid: allocated 185.2 MByte
LBM_showGridStatistics:
	nObstacleCells:  343321 nAccelCells:   26912 nFluidCells: 1789767
	minRho:   1.0000 maxRho:   1.0000 mass: 2.160000e+06
	minU: 0.000000e+00 maxU: 0.000000e+00

event update
GPGPU-Sim: synchronize waiting for inactive GPU simulation
GPGPU-Sim API: Stream Manager State
GPGPU-Sim: detected inactive GPU simulation thread
GPGPU-Sim PTX: Setting up arguments for 8 bytes starting at 0x7ffef7399c58..
GPGPU-Sim PTX: Setting up arguments for 8 bytes starting at 0x7ffef7399c50..

GPGPU-Sim PTX: cudaLaunch for 0x0x4052eb (mode=performance simulation) on stream 0
GPGPU-Sim PTX: finding reconvergence points for '_Z32performStreamCollide_kernel_nvmqPfS_'...
GPGPU-Sim PTX: Finding dominators for '_Z32performStreamCollide_kernel_nvmqPfS_'...
GPGPU-Sim PTX: Finding immediate dominators for '_Z32performStreamCollide_kernel_nvmqPfS_'...
GPGPU-Sim PTX: Finding postdominators for '_Z32performStreamCollide_kernel_nvmqPfS_'...
GPGPU-Sim PTX: Finding immediate postdominators for '_Z32performStreamCollide_kernel_nvmqPfS_'...
GPGPU-Sim PTX: pre-decoding instructions for '_Z32performStreamCollide_kernel_nvmqPfS_'...
GPGPU-Sim PTX: reconvergence points for _Z32performStreamCollide_kernel_nvmqPfS_...
GPGPU-Sim PTX:  1 (potential) branch divergence @  PC=0x61f8 (lbm.2.sm_70.ptx:4032) @%p1 bra BB9_1;
GPGPU-Sim PTX:    immediate post dominator      @  PC=0x6790 (lbm.2.sm_70.ptx:4217) cvta.to.global.u64 %rd25, %rd1;
GPGPU-Sim PTX:  2 (potential) branch divergence @  PC=0x6200 (lbm.2.sm_70.ptx:4033) bra.uni BB9_2;
GPGPU-Sim PTX:    immediate post dominator      @  PC=0x6258 (lbm.2.sm_70.ptx:4048) add.f32 %f58, %f219, %f217;
GPGPU-Sim PTX:  3 (potential) branch divergence @  PC=0x6250 (lbm.2.sm_70.ptx:4045) bra.uni BB9_3;
GPGPU-Sim PTX:    immediate post dominator      @  PC=0x6790 (lbm.2.sm_70.ptx:4217) cvta.to.global.u64 %rd25, %rd1;
GPGPU-Sim PTX: ... end of reconvergence points for _Z32performStreamCollide_kernel_nvmqPfS_
GPGPU-Sim PTX: ... done pre-decoding instructions for '_Z32performStreamCollide_kernel_nvmqPfS_'.
GPGPU-Sim PTX: pushing kernel '_Z32performStreamCollide_kernel_nvmqPfS_' to stream 0, gridDim= (120,150,1) blockDim = (120,1,1) 
GPGPU-Sim uArch: Shader 0 bind to kernel 1 '_Z32performStreamCollide_kernel_nvmqPfS_'
GPGPU-Sim uArch: CTA/core = 12, limited by: regs
GPGPU-Sim: Reconfigure L1 cache to 128KB
GPGPU-Sim uArch: Shader 1 bind to kernel 1 '_Z32performStreamCollide_kernel_nvmqPfS_'
GPGPU-Sim uArch: Shader 2 bind to kernel 1 '_Z32performStreamCollide_kernel_nvmqPfS_'
GPGPU-Sim uArch: Shader 3 bind to kernel 1 '_Z32performStreamCollide_kernel_nvmqPfS_'
GPGPU-Sim uArch: Shader 4 bind to kernel 1 '_Z32performStreamCollide_kernel_nvmqPfS_'
GPGPU-Sim uArch: Shader 5 bind to kernel 1 '_Z32performStreamCollide_kernel_nvmqPfS_'
GPGPU-Sim uArch: Shader 6 bind to kernel 1 '_Z32performStreamCollide_kernel_nvmqPfS_'
GPGPU-Sim uArch: Shader 7 bind to kernel 1 '_Z32performStreamCollide_kernel_nvmqPfS_'
GPGPU-Sim uArch: Shader 8 bind to kernel 1 '_Z32performStreamCollide_kernel_nvmqPfS_'
GPGPU-Sim uArch: Shader 9 bind to kernel 1 '_Z32performStreamCollide_kernel_nvmqPfS_'
GPGPU-Sim uArch: Shader 10 bind to kernel 1 '_Z32performStreamCollide_kernel_nvmqPfS_'
GPGPU-Sim uArch: Shader 11 bind to kernel 1 '_Z32performStreamCollide_kernel_nvmqPfS_'
GPGPU-Sim uArch: Shader 12 bind to kernel 1 '_Z32performStreamCollide_kernel_nvmqPfS_'
GPGPU-Sim uArch: Shader 13 bind to kernel 1 '_Z32performStreamCollide_kernel_nvmqPfS_'
GPGPU-Sim uArch: Shader 14 bind to kernel 1 '_Z32performStreamCollide_kernel_nvmqPfS_'
GPGPU-Sim uArch: Shader 15 bind to kernel 1 '_Z32performStreamCollide_kernel_nvmqPfS_'
GPGPU-Sim uArch: Shader 16 bind to kernel 1 '_Z32performStreamCollide_kernel_nvmqPfS_'
GPGPU-Sim uArch: Shader 17 bind to kernel 1 '_Z32performStreamCollide_kernel_nvmqPfS_'
GPGPU-Sim uArch: Shader 18 bind to kernel 1 '_Z32performStreamCollide_kernel_nvmqPfS_'
GPGPU-Sim uArch: Shader 19 bind to kernel 1 '_Z32performStreamCollide_kernel_nvmqPfS_'
GPGPU-Sim uArch: Shader 20 bind to kernel 1 '_Z32performStreamCollide_kernel_nvmqPfS_'
GPGPU-Sim uArch: Shader 21 bind to kernel 1 '_Z32performStreamCollide_kernel_nvmqPfS_'
GPGPU-Sim uArch: Shader 22 bind to kernel 1 '_Z32performStreamCollide_kernel_nvmqPfS_'
GPGPU-Sim uArch: Shader 23 bind to kernel 1 '_Z32performStreamCollide_kernel_nvmqPfS_'
GPGPU-Sim uArch: Shader 24 bind to kernel 1 '_Z32performStreamCollide_kernel_nvmqPfS_'
GPGPU-Sim uArch: Shader 25 bind to kernel 1 '_Z32performStreamCollide_kernel_nvmqPfS_'
GPGPU-Sim uArch: Shader 26 bind to kernel 1 '_Z32performStreamCollide_kernel_nvmqPfS_'
GPGPU-Sim uArch: Shader 27 bind to kernel 1 '_Z32performStreamCollide_kernel_nvmqPfS_'
GPGPU-Sim uArch: Shader 28 bind to kernel 1 '_Z32performStreamCollide_kernel_nvmqPfS_'
GPGPU-Sim uArch: Shader 29 bind to kernel 1 '_Z32performStreamCollide_kernel_nvmqPfS_'
GPGPU-Sim uArch: Shader 30 bind to kernel 1 '_Z32performStreamCollide_kernel_nvmqPfS_'
GPGPU-Sim uArch: Shader 31 bind to kernel 1 '_Z32performStreamCollide_kernel_nvmqPfS_'
GPGPU-Sim uArch: Shader 32 bind to kernel 1 '_Z32performStreamCollide_kernel_nvmqPfS_'
GPGPU-Sim uArch: Shader 33 bind to kernel 1 '_Z32performStreamCollide_kernel_nvmqPfS_'
GPGPU-Sim uArch: Shader 34 bind to kernel 1 '_Z32performStreamCollide_kernel_nvmqPfS_'
GPGPU-Sim uArch: Shader 35 bind to kernel 1 '_Z32performStreamCollide_kernel_nvmqPfS_'
GPGPU-Sim uArch: Shader 36 bind to kernel 1 '_Z32performStreamCollide_kernel_nvmqPfS_'
GPGPU-Sim uArch: Shader 37 bind to kernel 1 '_Z32performStreamCollide_kernel_nvmqPfS_'
GPGPU-Sim uArch: Shader 38 bind to kernel 1 '_Z32performStreamCollide_kernel_nvmqPfS_'
GPGPU-Sim uArch: Shader 39 bind to kernel 1 '_Z32performStreamCollide_kernel_nvmqPfS_'
GPGPU-Sim uArch: Shader 40 bind to kernel 1 '_Z32performStreamCollide_kernel_nvmqPfS_'
GPGPU-Sim uArch: Shader 41 bind to kernel 1 '_Z32performStreamCollide_kernel_nvmqPfS_'
GPGPU-Sim uArch: Shader 42 bind to kernel 1 '_Z32performStreamCollide_kernel_nvmqPfS_'
GPGPU-Sim uArch: Shader 43 bind to kernel 1 '_Z32performStreamCollide_kernel_nvmqPfS_'
GPGPU-Sim uArch: Shader 44 bind to kernel 1 '_Z32performStreamCollide_kernel_nvmqPfS_'
GPGPU-Sim uArch: Shader 45 bind to kernel 1 '_Z32performStreamCollide_kernel_nvmqPfS_'
GPGPU-Sim uArch: Shader 46 bind to kernel 1 '_Z32performStreamCollide_kernel_nvmqPfS_'
GPGPU-Sim uArch: Shader 47 bind to kernel 1 '_Z32performStreamCollide_kernel_nvmqPfS_'
GPGPU-Sim uArch: Shader 48 bind to kernel 1 '_Z32performStreamCollide_kernel_nvmqPfS_'
GPGPU-Sim uArch: Shader 49 bind to kernel 1 '_Z32performStreamCollide_kernel_nvmqPfS_'
GPGPU-Sim uArch: Shader 50 bind to kernel 1 '_Z32performStreamCollide_kernel_nvmqPfS_'
GPGPU-Sim uArch: Shader 51 bind to kernel 1 '_Z32performStreamCollide_kernel_nvmqPfS_'
GPGPU-Sim uArch: Shader 52 bind to kernel 1 '_Z32performStreamCollide_kernel_nvmqPfS_'
GPGPU-Sim uArch: Shader 53 bind to kernel 1 '_Z32performStreamCollide_kernel_nvmqPfS_'
GPGPU-Sim uArch: Shader 54 bind to kernel 1 '_Z32performStreamCollide_kernel_nvmqPfS_'
GPGPU-Sim uArch: Shader 55 bind to kernel 1 '_Z32performStreamCollide_kernel_nvmqPfS_'
GPGPU-Sim uArch: Shader 56 bind to kernel 1 '_Z32performStreamCollide_kernel_nvmqPfS_'
GPGPU-Sim uArch: Shader 57 bind to kernel 1 '_Z32performStreamCollide_kernel_nvmqPfS_'
GPGPU-Sim uArch: Shader 58 bind to kernel 1 '_Z32performStreamCollide_kernel_nvmqPfS_'
GPGPU-Sim uArch: Shader 59 bind to kernel 1 '_Z32performStreamCollide_kernel_nvmqPfS_'
GPGPU-Sim uArch: Shader 60 bind to kernel 1 '_Z32performStreamCollide_kernel_nvmqPfS_'
GPGPU-Sim uArch: Shader 61 bind to kernel 1 '_Z32performStreamCollide_kernel_nvmqPfS_'
GPGPU-Sim uArch: Shader 62 bind to kernel 1 '_Z32performStreamCollide_kernel_nvmqPfS_'
GPGPU-Sim uArch: Shader 63 bind to kernel 1 '_Z32performStreamCollide_kernel_nvmqPfS_'
GPGPU-Sim uArch: Shader 64 bind to kernel 1 '_Z32performStreamCollide_kernel_nvmqPfS_'
GPGPU-Sim uArch: Shader 65 bind to kernel 1 '_Z32performStreamCollide_kernel_nvmqPfS_'
GPGPU-Sim uArch: Shader 66 bind to kernel 1 '_Z32performStreamCollide_kernel_nvmqPfS_'
GPGPU-Sim uArch: Shader 67 bind to kernel 1 '_Z32performStreamCollide_kernel_nvmqPfS_'
GPGPU-Sim uArch: Shader 68 bind to kernel 1 '_Z32performStreamCollide_kernel_nvmqPfS_'
GPGPU-Sim uArch: Shader 69 bind to kernel 1 '_Z32performStreamCollide_kernel_nvmqPfS_'
GPGPU-Sim uArch: Shader 70 bind to kernel 1 '_Z32performStreamCollide_kernel_nvmqPfS_'
GPGPU-Sim uArch: Shader 71 bind to kernel 1 '_Z32performStreamCollide_kernel_nvmqPfS_'
GPGPU-Sim uArch: Shader 72 bind to kernel 1 '_Z32performStreamCollide_kernel_nvmqPfS_'
GPGPU-Sim uArch: Shader 73 bind to kernel 1 '_Z32performStreamCollide_kernel_nvmqPfS_'
GPGPU-Sim uArch: Shader 74 bind to kernel 1 '_Z32performStreamCollide_kernel_nvmqPfS_'
GPGPU-Sim uArch: Shader 75 bind to kernel 1 '_Z32performStreamCollide_kernel_nvmqPfS_'
GPGPU-Sim uArch: Shader 76 bind to kernel 1 '_Z32performStreamCollide_kernel_nvmqPfS_'
GPGPU-Sim uArch: Shader 77 bind to kernel 1 '_Z32performStreamCollide_kernel_nvmqPfS_'
GPGPU-Sim uArch: Shader 78 bind to kernel 1 '_Z32performStreamCollide_kernel_nvmqPfS_'
GPGPU-Sim uArch: Shader 79 bind to kernel 1 '_Z32performStreamCollide_kernel_nvmqPfS_'
kernel_name = _Z32performStreamCollide_kernel_nvmqPfS_ 
kernel_launch_uid = 1 
gpu_sim_cycle = 58812
gpu_sim_insn = 47749453
gpu_ipc =     811.8998
gpu_tot_sim_cycle = 58812
gpu_tot_sim_insn = 47749453
gpu_tot_ipc =     811.8998
gpu_tot_issued_cta = 1960
gpu_occupancy = 73.1750% 
gpu_tot_occupancy = 73.1750% 
max_total_param_size = 0
gpu_stall_dramfull = 1387482
gpu_stall_icnt2sh    = 0
partiton_level_parallism =      21.6006
partiton_level_parallism_total  =      21.6006
partiton_level_parallism_util =      25.5922
partiton_level_parallism_util_total  =      25.5922
L2_BW  =     774.9437 GB/Sec
L2_BW_total  =     774.9437 GB/Sec
gpu_total_sim_rate=84214
############## bottleneck_stats #############
cycles: core 58812, icnt 58812, l2 58812, dram 44161
gpu_ipc	811.900
gpu_tot_issued_cta = 1960, average cycles = 30
n_dram_writes	 0, n_dram_reads	 0
n_GLOBAL_ACC_R	 484250 
n_LOCAL_ACC_R	 0 
n_CONST_ACC_R	 0 
n_TEXTURE_ACC_R	 0 
n_GLOBAL_ACC_W	 0 
n_LOCAL_ACC_W	 0 
n_L1_WRBK_ACC	 0 
n_L2_WRBK_ACC	 81500 
n_L1_WR_ALLOC_R	 0 
n_L2_WR_ALLOC_R	 0 

n_sm	 80, n_schedulers	 4
scheduler util	0.087	80
L1D data util	0.764	80	0.883	22
L1D tag util	0.456	80	0.528	8
L2 data util	0.666	64	0.727	17
L2 tag util	0.344	64	0.388	17
n_l2_access	 1294384
icnt s2m util	0.000	0	0.000	17	flits per packet: -nan
icnt m2s util	0.000	0	0.000	17	flits per packet: -nan
sum=0
n_mem	 32
dram util	0.538	32	0.579	8

latency_l2_hit:	884913771, num_l2_reqs:	386122
L2 hit latency:	2291
latency_dram:	-1528998568, num_dram_reqs:	870714
DRAM latency:	3176

n_reg	65536, n_smem	98304, n_thread	2048, n_tb	32
reg file	0.938
smem size	0.000
thread slot	0.750
TB slot    	0.375
L1I tag util	0.177	80	0.211	41

n_mem_pipe	1, n_sp_pipe	4, n_sfu_pipe	4
mem pipe util	0.071	80	0.082	22
sp pipe util	0.063	80	0.077	41
sfu pipe util	0.003	80	0.004	38
ldst mem cycle	0.089	80	0.105	41

smem port	0.000	0

n_reg_bank	16
reg port	0.043	16	0.059	6
L1D tag util	0.456	80	0.528	8
L1D fill util	0.103	80	0.119	56
n_l1d_mshr	4096
L1D mshr util	0.093	80
n_l1d_missq	16
L1D missq util	0.447	80
L1D hit rate	0.000
L1D miss rate	0.419
L1D rsfail rate	0.581
L2 tag util	0.344	64	0.388	17
L2 fill util	0.128	64	0.141	13
n_l2_mshr	192
n_l2_missq	32
L2 mshr util	0.591	64	0.686	41
L2 missq util	0.006	64	0.007	37
L2 hit rate	0.299
L2 miss rate	0.678
L2 rsfail rate	0.023

dram activity	0.871	32	0.899	18

load trans eff	1.000
load trans sz	32.000
load_useful_bytes 16015360, load_transaction_bytes 16015360, icnt_m2s_bytes 0
n_gmem_load_insns 133151, n_gmem_load_accesses 500480
n_smem_access_insn 0, n_smem_accesses 0

tmp_counter/12	0.367

run 0.028, fetch 0.002, sync 0.174, control 0.000, data 0.742, struct 0.055
############ end_bottleneck_stats #############

========= Core cache stats =========
L1I_cache:
	L1I_total_cache_accesses = 0
	L1I_total_cache_misses = 0
	L1I_total_cache_pending_hits = 0
	L1I_total_cache_reservation_fails = 0
L1D_cache:
	L1D_cache_core[0]: Access = 10557, Miss = 10557, Miss_rate = 1.000, Pending_hits = 0, Reservation_fails = 17933
	L1D_cache_core[1]: Access = 11535, Miss = 11535, Miss_rate = 1.000, Pending_hits = 0, Reservation_fails = 16262
	L1D_cache_core[2]: Access = 11600, Miss = 11600, Miss_rate = 1.000, Pending_hits = 0, Reservation_fails = 12605
	L1D_cache_core[3]: Access = 9427, Miss = 9427, Miss_rate = 1.000, Pending_hits = 0, Reservation_fails = 15322
	L1D_cache_core[4]: Access = 10990, Miss = 10990, Miss_rate = 1.000, Pending_hits = 0, Reservation_fails = 16526
	L1D_cache_core[5]: Access = 11367, Miss = 11367, Miss_rate = 1.000, Pending_hits = 0, Reservation_fails = 15819
	L1D_cache_core[6]: Access = 11667, Miss = 11667, Miss_rate = 1.000, Pending_hits = 0, Reservation_fails = 16556
	L1D_cache_core[7]: Access = 11266, Miss = 11266, Miss_rate = 1.000, Pending_hits = 0, Reservation_fails = 11071
	L1D_cache_core[8]: Access = 11029, Miss = 11029, Miss_rate = 1.000, Pending_hits = 0, Reservation_fails = 20014
	L1D_cache_core[9]: Access = 10948, Miss = 10948, Miss_rate = 1.000, Pending_hits = 0, Reservation_fails = 14144
	L1D_cache_core[10]: Access = 9546, Miss = 9546, Miss_rate = 1.000, Pending_hits = 0, Reservation_fails = 17574
	L1D_cache_core[11]: Access = 10089, Miss = 10089, Miss_rate = 1.000, Pending_hits = 0, Reservation_fails = 17206
	L1D_cache_core[12]: Access = 11347, Miss = 11347, Miss_rate = 1.000, Pending_hits = 0, Reservation_fails = 14904
	L1D_cache_core[13]: Access = 11113, Miss = 11113, Miss_rate = 1.000, Pending_hits = 0, Reservation_fails = 15539
	L1D_cache_core[14]: Access = 11804, Miss = 11804, Miss_rate = 1.000, Pending_hits = 0, Reservation_fails = 13850
	L1D_cache_core[15]: Access = 11920, Miss = 11920, Miss_rate = 1.000, Pending_hits = 0, Reservation_fails = 14865
	L1D_cache_core[16]: Access = 11880, Miss = 11880, Miss_rate = 1.000, Pending_hits = 0, Reservation_fails = 13132
	L1D_cache_core[17]: Access = 12345, Miss = 12345, Miss_rate = 1.000, Pending_hits = 0, Reservation_fails = 14105
	L1D_cache_core[18]: Access = 10586, Miss = 10586, Miss_rate = 1.000, Pending_hits = 0, Reservation_fails = 18123
	L1D_cache_core[19]: Access = 11131, Miss = 11131, Miss_rate = 1.000, Pending_hits = 0, Reservation_fails = 17853
	L1D_cache_core[20]: Access = 11118, Miss = 11118, Miss_rate = 1.000, Pending_hits = 0, Reservation_fails = 14034
	L1D_cache_core[21]: Access = 10937, Miss = 10937, Miss_rate = 1.000, Pending_hits = 0, Reservation_fails = 14239
	L1D_cache_core[22]: Access = 12990, Miss = 12990, Miss_rate = 1.000, Pending_hits = 0, Reservation_fails = 16171
	L1D_cache_core[23]: Access = 10042, Miss = 10042, Miss_rate = 1.000, Pending_hits = 0, Reservation_fails = 13925
	L1D_cache_core[24]: Access = 11758, Miss = 11758, Miss_rate = 1.000, Pending_hits = 0, Reservation_fails = 14778
	L1D_cache_core[25]: Access = 11548, Miss = 11548, Miss_rate = 1.000, Pending_hits = 0, Reservation_fails = 18990
	L1D_cache_core[26]: Access = 10127, Miss = 10127, Miss_rate = 1.000, Pending_hits = 0, Reservation_fails = 16629
	L1D_cache_core[27]: Access = 11359, Miss = 11359, Miss_rate = 1.000, Pending_hits = 0, Reservation_fails = 14488
	L1D_cache_core[28]: Access = 10252, Miss = 10252, Miss_rate = 1.000, Pending_hits = 0, Reservation_fails = 19783
	L1D_cache_core[29]: Access = 11454, Miss = 11454, Miss_rate = 1.000, Pending_hits = 0, Reservation_fails = 15358
	L1D_cache_core[30]: Access = 10892, Miss = 10892, Miss_rate = 1.000, Pending_hits = 0, Reservation_fails = 18639
	L1D_cache_core[31]: Access = 12080, Miss = 12080, Miss_rate = 1.000, Pending_hits = 0, Reservation_fails = 15371
	L1D_cache_core[32]: Access = 12047, Miss = 12047, Miss_rate = 1.000, Pending_hits = 0, Reservation_fails = 13329
	L1D_cache_core[33]: Access = 11834, Miss = 11834, Miss_rate = 1.000, Pending_hits = 0, Reservation_fails = 14415
	L1D_cache_core[34]: Access = 10168, Miss = 10168, Miss_rate = 1.000, Pending_hits = 0, Reservation_fails = 15862
	L1D_cache_core[35]: Access = 10458, Miss = 10458, Miss_rate = 1.000, Pending_hits = 0, Reservation_fails = 16819
	L1D_cache_core[36]: Access = 10833, Miss = 10833, Miss_rate = 1.000, Pending_hits = 0, Reservation_fails = 14133
	L1D_cache_core[37]: Access = 10235, Miss = 10235, Miss_rate = 1.000, Pending_hits = 0, Reservation_fails = 17815
	L1D_cache_core[38]: Access = 12465, Miss = 12465, Miss_rate = 1.000, Pending_hits = 0, Reservation_fails = 16122
	L1D_cache_core[39]: Access = 10331, Miss = 10331, Miss_rate = 1.000, Pending_hits = 0, Reservation_fails = 12670
	L1D_cache_core[40]: Access = 12619, Miss = 12619, Miss_rate = 1.000, Pending_hits = 0, Reservation_fails = 13957
	L1D_cache_core[41]: Access = 12928, Miss = 12928, Miss_rate = 1.000, Pending_hits = 0, Reservation_fails = 14305
	L1D_cache_core[42]: Access = 9748, Miss = 9748, Miss_rate = 1.000, Pending_hits = 0, Reservation_fails = 15957
	L1D_cache_core[43]: Access = 10401, Miss = 10401, Miss_rate = 1.000, Pending_hits = 0, Reservation_fails = 16907
	L1D_cache_core[44]: Access = 10085, Miss = 10085, Miss_rate = 1.000, Pending_hits = 0, Reservation_fails = 16625
	L1D_cache_core[45]: Access = 11031, Miss = 11031, Miss_rate = 1.000, Pending_hits = 0, Reservation_fails = 17908
	L1D_cache_core[46]: Access = 11169, Miss = 11169, Miss_rate = 1.000, Pending_hits = 0, Reservation_fails = 17080
	L1D_cache_core[47]: Access = 11737, Miss = 11737, Miss_rate = 1.000, Pending_hits = 0, Reservation_fails = 14521
	L1D_cache_core[48]: Access = 10827, Miss = 10827, Miss_rate = 1.000, Pending_hits = 0, Reservation_fails = 16128
	L1D_cache_core[49]: Access = 11408, Miss = 11408, Miss_rate = 1.000, Pending_hits = 0, Reservation_fails = 13438
	L1D_cache_core[50]: Access = 11862, Miss = 11862, Miss_rate = 1.000, Pending_hits = 0, Reservation_fails = 17499
	L1D_cache_core[51]: Access = 11106, Miss = 11106, Miss_rate = 1.000, Pending_hits = 0, Reservation_fails = 17095
	L1D_cache_core[52]: Access = 10958, Miss = 10958, Miss_rate = 1.000, Pending_hits = 0, Reservation_fails = 12953
	L1D_cache_core[53]: Access = 11053, Miss = 11053, Miss_rate = 1.000, Pending_hits = 0, Reservation_fails = 17710
	L1D_cache_core[54]: Access = 12239, Miss = 12239, Miss_rate = 1.000, Pending_hits = 0, Reservation_fails = 14891
	L1D_cache_core[55]: Access = 11305, Miss = 11305, Miss_rate = 1.000, Pending_hits = 0, Reservation_fails = 11515
	L1D_cache_core[56]: Access = 12422, Miss = 12422, Miss_rate = 1.000, Pending_hits = 0, Reservation_fails = 18209
	L1D_cache_core[57]: Access = 12080, Miss = 12080, Miss_rate = 1.000, Pending_hits = 0, Reservation_fails = 16342
	L1D_cache_core[58]: Access = 10722, Miss = 10722, Miss_rate = 1.000, Pending_hits = 0, Reservation_fails = 16327
	L1D_cache_core[59]: Access = 10347, Miss = 10347, Miss_rate = 1.000, Pending_hits = 0, Reservation_fails = 17403
	L1D_cache_core[60]: Access = 11816, Miss = 11816, Miss_rate = 1.000, Pending_hits = 0, Reservation_fails = 16670
	L1D_cache_core[61]: Access = 11781, Miss = 11781, Miss_rate = 1.000, Pending_hits = 0, Reservation_fails = 15293
	L1D_cache_core[62]: Access = 10730, Miss = 10730, Miss_rate = 1.000, Pending_hits = 0, Reservation_fails = 13914
	L1D_cache_core[63]: Access = 11918, Miss = 11918, Miss_rate = 1.000, Pending_hits = 0, Reservation_fails = 13565
	L1D_cache_core[64]: Access = 12203, Miss = 12203, Miss_rate = 1.000, Pending_hits = 0, Reservation_fails = 13328
	L1D_cache_core[65]: Access = 11111, Miss = 11111, Miss_rate = 1.000, Pending_hits = 0, Reservation_fails = 12566
	L1D_cache_core[66]: Access = 10608, Miss = 10608, Miss_rate = 1.000, Pending_hits = 0, Reservation_fails = 16917
	L1D_cache_core[67]: Access = 10372, Miss = 10372, Miss_rate = 1.000, Pending_hits = 0, Reservation_fails = 18225
	L1D_cache_core[68]: Access = 10451, Miss = 10451, Miss_rate = 1.000, Pending_hits = 0, Reservation_fails = 13141
	L1D_cache_core[69]: Access = 11799, Miss = 11799, Miss_rate = 1.000, Pending_hits = 0, Reservation_fails = 13278
	L1D_cache_core[70]: Access = 12048, Miss = 12048, Miss_rate = 1.000, Pending_hits = 0, Reservation_fails = 15255
	L1D_cache_core[71]: Access = 10364, Miss = 10364, Miss_rate = 1.000, Pending_hits = 0, Reservation_fails = 14340
	L1D_cache_core[72]: Access = 12919, Miss = 12919, Miss_rate = 1.000, Pending_hits = 0, Reservation_fails = 13618
	L1D_cache_core[73]: Access = 11775, Miss = 11775, Miss_rate = 1.000, Pending_hits = 0, Reservation_fails = 15130
	L1D_cache_core[74]: Access = 10312, Miss = 10312, Miss_rate = 1.000, Pending_hits = 0, Reservation_fails = 17899
	L1D_cache_core[75]: Access = 10711, Miss = 10711, Miss_rate = 1.000, Pending_hits = 0, Reservation_fails = 18288
	L1D_cache_core[76]: Access = 11394, Miss = 11394, Miss_rate = 1.000, Pending_hits = 0, Reservation_fails = 15652
	L1D_cache_core[77]: Access = 11877, Miss = 11877, Miss_rate = 1.000, Pending_hits = 0, Reservation_fails = 14999
	L1D_cache_core[78]: Access = 11755, Miss = 11755, Miss_rate = 1.000, Pending_hits = 0, Reservation_fails = 16786
	L1D_cache_core[79]: Access = 11701, Miss = 11701, Miss_rate = 1.000, Pending_hits = 0, Reservation_fails = 13408
	L1D_total_cache_accesses = 898767
	L1D_total_cache_misses = 898767
	L1D_total_cache_miss_rate = 1.0000
	L1D_total_cache_pending_hits = 0
	L1D_total_cache_reservation_fails = 1246015
	L1D_cache_data_port_util = 0.000
	L1D_cache_fill_port_util = 0.112
L1C_cache:
	L1C_total_cache_accesses = 0
	L1C_total_cache_misses = 0
	L1C_total_cache_pending_hits = 0
	L1C_total_cache_reservation_fails = 0
L1T_cache:
	L1T_total_cache_accesses = 0
	L1T_total_cache_misses = 0
	L1T_total_cache_pending_hits = 0
	L1T_total_cache_reservation_fails = 0

Total_core_cache_stats:
	Total_core_cache_stats_breakdown[GLOBAL_ACC_R][HIT] = 0
	Total_core_cache_stats_breakdown[GLOBAL_ACC_R][HIT_RESERVED] = 0
	Total_core_cache_stats_breakdown[GLOBAL_ACC_R][MISS] = 499267
	Total_core_cache_stats_breakdown[GLOBAL_ACC_R][RESERVATION_FAIL] = 868703
	Total_core_cache_stats_breakdown[GLOBAL_ACC_R][SECTOR_MISS] = 0
	Total_core_cache_stats_breakdown[LOCAL_ACC_R][HIT] = 0
	Total_core_cache_stats_breakdown[LOCAL_ACC_R][HIT_RESERVED] = 0
	Total_core_cache_stats_breakdown[LOCAL_ACC_R][MISS] = 0
	Total_core_cache_stats_breakdown[LOCAL_ACC_R][RESERVATION_FAIL] = 0
	Total_core_cache_stats_breakdown[LOCAL_ACC_R][SECTOR_MISS] = 0
	Total_core_cache_stats_breakdown[CONST_ACC_R][HIT] = 0
	Total_core_cache_stats_breakdown[CONST_ACC_R][HIT_RESERVED] = 0
	Total_core_cache_stats_breakdown[CONST_ACC_R][MISS] = 0
	Total_core_cache_stats_breakdown[CONST_ACC_R][RESERVATION_FAIL] = 0
	Total_core_cache_stats_breakdown[CONST_ACC_R][SECTOR_MISS] = 0
	Total_core_cache_stats_breakdown[TEXTURE_ACC_R][HIT] = 0
	Total_core_cache_stats_breakdown[TEXTURE_ACC_R][HIT_RESERVED] = 0
	Total_core_cache_stats_breakdown[TEXTURE_ACC_R][MISS] = 0
	Total_core_cache_stats_breakdown[TEXTURE_ACC_R][RESERVATION_FAIL] = 0
	Total_core_cache_stats_breakdown[TEXTURE_ACC_R][SECTOR_MISS] = 0
	Total_core_cache_stats_breakdown[GLOBAL_ACC_W][HIT] = 0
	Total_core_cache_stats_breakdown[GLOBAL_ACC_W][HIT_RESERVED] = 0
	Total_core_cache_stats_breakdown[GLOBAL_ACC_W][MISS] = 399500
	Total_core_cache_stats_breakdown[GLOBAL_ACC_W][RESERVATION_FAIL] = 377312
	Total_core_cache_stats_breakdown[GLOBAL_ACC_W][SECTOR_MISS] = 0
	Total_core_cache_stats_breakdown[LOCAL_ACC_W][HIT] = 0
	Total_core_cache_stats_breakdown[LOCAL_ACC_W][HIT_RESERVED] = 0
	Total_core_cache_stats_breakdown[LOCAL_ACC_W][MISS] = 0
	Total_core_cache_stats_breakdown[LOCAL_ACC_W][RESERVATION_FAIL] = 0
	Total_core_cache_stats_breakdown[LOCAL_ACC_W][SECTOR_MISS] = 0
	Total_core_cache_stats_breakdown[L1_WRBK_ACC][HIT] = 0
	Total_core_cache_stats_breakdown[L1_WRBK_ACC][HIT_RESERVED] = 0
	Total_core_cache_stats_breakdown[L1_WRBK_ACC][MISS] = 0
	Total_core_cache_stats_breakdown[L1_WRBK_ACC][RESERVATION_FAIL] = 0
	Total_core_cache_stats_breakdown[L1_WRBK_ACC][SECTOR_MISS] = 0
	Total_core_cache_stats_breakdown[L2_WRBK_ACC][HIT] = 0
	Total_core_cache_stats_breakdown[L2_WRBK_ACC][HIT_RESERVED] = 0
	Total_core_cache_stats_breakdown[L2_WRBK_ACC][MISS] = 0
	Total_core_cache_stats_breakdown[L2_WRBK_ACC][RESERVATION_FAIL] = 0
	Total_core_cache_stats_breakdown[L2_WRBK_ACC][SECTOR_MISS] = 0
	Total_core_cache_stats_breakdown[INST_ACC_R][HIT] = 0
	Total_core_cache_stats_breakdown[INST_ACC_R][HIT_RESERVED] = 0
	Total_core_cache_stats_breakdown[INST_ACC_R][MISS] = 0
	Total_core_cache_stats_breakdown[INST_ACC_R][RESERVATION_FAIL] = 0
	Total_core_cache_stats_breakdown[INST_ACC_R][SECTOR_MISS] = 0
	Total_core_cache_stats_breakdown[L1_WR_ALLOC_R][HIT] = 0
	Total_core_cache_stats_breakdown[L1_WR_ALLOC_R][HIT_RESERVED] = 0
	Total_core_cache_stats_breakdown[L1_WR_ALLOC_R][MISS] = 0
	Total_core_cache_stats_breakdown[L1_WR_ALLOC_R][RESERVATION_FAIL] = 0
	Total_core_cache_stats_breakdown[L1_WR_ALLOC_R][SECTOR_MISS] = 0
	Total_core_cache_stats_breakdown[L2_WR_ALLOC_R][HIT] = 0
	Total_core_cache_stats_breakdown[L2_WR_ALLOC_R][HIT_RESERVED] = 0
	Total_core_cache_stats_breakdown[L2_WR_ALLOC_R][MISS] = 0
	Total_core_cache_stats_breakdown[L2_WR_ALLOC_R][RESERVATION_FAIL] = 0
	Total_core_cache_stats_breakdown[L2_WR_ALLOC_R][SECTOR_MISS] = 0
	Total_core_cache_stats_breakdown[GLOBAL_ACC_R][TOTAL_ACCESS] = 499267
	Total_core_cache_stats_breakdown[GLOBAL_ACC_W][TOTAL_ACCESS] = 399500

Total_core_cache_fail_stats:
	Total_core_cache_fail_stats_breakdown[GLOBAL_ACC_R][MISS_QUEUE_FULL] = 868703
	Total_core_cache_fail_stats_breakdown[GLOBAL_ACC_W][MISS_QUEUE_FULL] = 377312
Shader 0 warp_id issue ditsribution:
warp_id:
0, 1, 2, 3, 4, 5, 6, 7, 8, 9, 10, 11, 12, 13, 14, 15, 16, 17, 18, 19, 20, 21, 22, 23, 24, 25, 26, 27, 28, 29, 30, 31, 32, 33, 34, 35, 36, 37, 38, 39, 40, 41, 42, 43, 44, 45, 46, 47, 
distro:
429, 440, 458, 437, 380, 412, 393, 351, 357, 416, 425, 420, 249, 298, 258, 240, 356, 346, 348, 355, 355, 345, 346, 355, 187, 187, 187, 187, 355, 322, 324, 355, 325, 315, 315, 325, 165, 160, 160, 187, 322, 313, 313, 323, 312, 312, 312, 315, 
gpgpu_n_tot_thrd_icount = 52244416
gpgpu_n_tot_w_icount = 1632638
gpgpu_n_stall_shd_mem = 3965188
gpgpu_n_mem_read_local = 0
gpgpu_n_mem_write_local = 0
gpgpu_n_mem_read_global = 498996
gpgpu_n_mem_write_global = 817545
gpgpu_n_mem_texture = 0
gpgpu_n_mem_const = 0
gpgpu_n_load_insn  = 3997160
gpgpu_n_store_insn = 5450672
gpgpu_n_shmem_insn = 0
gpgpu_n_sstarr_insn = 0
gpgpu_n_tex_insn = 0
gpgpu_n_const_mem_insn = 0
gpgpu_n_param_mem_insn = 468376
gpgpu_n_shmem_bkconflict = 0
gpgpu_n_cache_bkconflict = 0
gpgpu_n_intrawarp_mshr_merge = 0
gpgpu_n_cmem_portconflict = 0
gpgpu_stall_shd_mem[c_mem][resource_stall] = 0
gpgpu_stall_shd_mem[s_mem][bk_conf] = 0
gpgpu_stall_shd_mem[gl_mem][resource_stall] = 1554777
gpgpu_stall_shd_mem[gl_mem][coal_stall] = 330385
gpgpu_stall_shd_mem[gl_mem][data_port_stall] = 0
gpu_reg_bank_conflict_stalls = 0
Warp Occupancy Distribution:
Stall:15575332	W0_Idle:400	W0_Scoreboard:4894	W1:26595	W2:0	W3:0	W4:0	W5:0	W6:0	W7:0	W8:0	W9:0	W10:0	W11:0	W12:0	W13:0	W14:0	W15:0	W16:0	W17:0	W18:0	W19:0	W20:0	W21:0	W22:0	W23:203221	W24:185740	W25:0	W26:0	W27:0	W28:0	W29:0	W30:0	W31:202545	W32:1020793
single_issue_nums: WS0:403176	WS1:415727	WS2:417721	WS3:402270	
dual_issue_nums: WS0:0	WS1:0	WS2:0	WS3:0	
traffic_breakdown_coretomem[GLOBAL_ACC_R] = 3991968 {8:498996,}
traffic_breakdown_coretomem[GLOBAL_ACC_W] = 19317480 {8:418260,40:399285,}
traffic_breakdown_memtocore[GLOBAL_ACC_R] = 19306880 {40:482672,}
traffic_breakdown_memtocore[GLOBAL_ACC_W] = 6193584 {8:774198,}
maxmflatency = 13103 
max_icnt2mem_latency = 11986 
maxmrqlatency = 1359 
max_icnt2sh_latency = 718 
averagemflatency = 2907 
avg_icnt2mem_latency = 2272 
avg_mrq_latency = 138 
avg_icnt2sh_latency = 21 
mrq_lat_table:25143 	19855 	10759 	15204 	35039 	85484 	138996 	153516 	64321 	15595 	259 	0 	0 	0 	0 	0 	0 	0 	0 	0 	0 	0 	0 	0 	0 	0 	0 	0 	0 	0 	0 	0 	
dq_lat_table:0 	0 	0 	0 	0 	0 	0 	0 	0 	0 	0 	0 	0 	0 	0 	0 	0 	0 	0 	0 	0 	0 	0 	0 	0 	0 	0 	0 	0 	0 	0 	0 	
mf_lat_table:0 	0 	0 	0 	0 	0 	0 	0 	1200 	31684 	429503 	507108 	282178 	5171 	0 	0 	0 	0 	0 	0 	0 	0 	0 	0 	0 	0 	0 	0 	0 	0 	0 	0 	
icnt2mem_lat_table:0 	0 	0 	0 	464 	2880 	5680 	11360 	3541 	210974 	436060 	475847 	121965 	1602 	0 	0 	0 	0 	0 	0 	0 	0 	0 	0 	
icnt2sh_lat_table:0 	714372 	167849 	118075 	89571 	69432 	45674 	29287 	19208 	3376 	0 	0 	0 	0 	0 	0 	0 	0 	0 	0 	0 	0 	0 	0 	
mf_lat_pw_table:0 	0 	0 	0 	0 	0 	0 	0 	0 	2 	17 	72 	15 	0 	0 	0 	0 	0 	0 	0 	0 	0 	0 	0 	0 	0 	0 	0 	0 	0 	0 	0 	
maximum concurrent accesses to same row:
dram[0]:        25        22        12        12        24        24        24        24        20        22        24        24        20        16        12        18 
dram[1]:        12        17        14        12        21        17        17        18        18        21        13        14        18        31        15        16 
dram[2]:        15        12        18        12        24        24        24        24        20        22        24        24        30        26        14        25 
dram[3]:        14        14        14        12        21        17        17        18        18        21        17        18        58        39        16        10 
dram[4]:        12        12        12        20        24        24        24        24        20        22        24        32        19        15        22        14 
dram[5]:        12        12        14        12        21        17        17        18        18        21        18        14        45        40        13        11 
dram[6]:        12        12        12        12        24        24        24        24        20        22        24        24        42        58        11        13 
dram[7]:        14         8        14        12        21        17        17        18        18        21        20        17        35        32        13        15 
dram[8]:        17        17        12        16        24        24        24        24        20        22        24        34        24        18        18        12 
dram[9]:        12        12        14        12        21        17        17        18        18        21        22        14        23        38        14        11 
dram[10]:        16        13        18        16        24        24        24        24        20        22        24        24        34        27        15        20 
dram[11]:        12        16        17        15        21        17        17        18        18        21        20        14        18        17        11        14 
dram[12]:        12        16        15        12        24        24        24        24        20        22        24        24        20        28        12        16 
dram[13]:        11        18        14        15        21        17        17        18        18        21        26        14        30        36        14        18 
dram[14]:        13        16        16        20        24        24        24        24        20        22        24        24        16        29        12        14 
dram[15]:         9        10        14        12        21        17        17        18        18        21        14        14        21        18        12        12 
dram[16]:        12        12        12        12        24        24        24        24        20        22        24        24        14        26        12        16 
dram[17]:        10        16        14        12        21        17        17        18        18        21        14        21        16        12        22        12 
dram[18]:        20        19        20        12        24        24        24        24        20        22        24        24        39        20        16        14 
dram[19]:         9        10        14        12        21        17        17        18        18        21        17        14        23        11        11        11 
dram[20]:        12        10        12        12        24        24        24        24        20        22        24        24        23        31        20        13 
dram[21]:        10        12        14        12        21        17        17        18        18        21        20        14        24        21        11        14 
dram[22]:        12        12        12        16        24        24        24        24        20        22        24        24        24        19        12        31 
dram[23]:        12        12        14        19        21        17        17        18        18        21        20        26        25        41        11        13 
dram[24]:        12        14        12        16        24        24        24        24        20        22        24        24        61        31        31        22 
dram[25]:        14        22        14        15        21        17        17        18        18        21        12        24        24        23        12        11 
dram[26]:        12        16        12        20        24        24        24        24        20        22        24        24        28        19        20        15 
dram[27]:         9         8        14        12        21        17        17        18        18        21        17        27        21        22        11        18 
dram[28]:        12        14        12        12        24        24        24        24        20        22        24        24        14        38        11        16 
dram[29]:        14        20        14        12        21        17        17        18        18        21        21        24        23        14         9        10 
dram[30]:        14        14        12        12        24        24        24        24        20        22        24        24        25        21        10        14 
dram[31]:        16        11        14        12        21        17        17        18        18        21        20        20        30        15        10        11 
maximum service time to same row:
dram[0]:     19392     13908     24854     27352     12190     12072     18284     12689      6357      6380      7015      7027     12426     12957     16688     16668 
dram[1]:     18521     12988     26213     24099     14339     16149     13584     14595      6352      6330      6878      6892     11366     12229     15217     15228 
dram[2]:     18635     13274     24407     24350     16670     12196      6037      6025      6357      6380      7015      7027     12426     12957     16548     16546 
dram[3]:     18631     13081     22663     22256     17091     17568     12857     16262      6352      6330      6878      6892     11366     12229     16391     16400 
dram[4]:     18721     13901     25860     24154     14428     17968     12854     13636      6357      6380      7015      7027     12426     12957     16616     16626 
dram[5]:     17846     13073     23073     22998     11488     13916     11286     13352      6352      6330      6878      6892     11366     12229     16476     16466 
dram[6]:     18533     14568     22129     23545     10610     18301     12278     11920      6357      6380      7015      7027     12426     12957     16585     16593 
dram[7]:     18131     14728     22367     22520     12094     17435     13147     15765      6352      6330      6878      6892     11366     12229     16432     16438 
dram[8]:     18175     13865     25582     22740      7828      6459      9348     12067      6357      6380      7015      7027     12426     12957     16566     16570 
dram[9]:     17678     13010     23053     22871      8972      7128     11471      9120      6352      6330      6878      6892     11366     12229     16022     16034 
dram[10]:     18693     13744     24113     26481     11140     11943     15153     19182      6357      6380      7015      7027     12426     12957     16554     16562 
dram[11]:     18231     13069     22894     25174     10776     12641      9529      6025      6352      6330      6878      6892     11366     12229     16424     16426 
dram[12]:     19107     14081     22922     28112     12758     12211      6037     10816      6357      6380      7015      7027     12426     12957     16541     16545 
dram[13]:     18010     13371     22331     22893     14331     13889     10000      6025      6352      6330      6878      6892     11366     12229     15890     15899 
dram[14]:     18593     14332     25206     25599     17718     13640     15170     15393      7721      6380      7015      7027     12426     12957     16554     16578 
dram[15]:     18789     18396     26217     27132     17965     17254      6004     18454      6352      6330      6878      6892     11366     12229     16002     16007 
dram[16]:     18648     13472     23932     24452     15953     15287     18152     16727      6357      6380      7015      7027     12426     12957     16621     16645 
dram[17]:     19299     13749     22252     22216     14146     17689      6004      6025      6352      6330      6878      6892     11366     12229     16492     16484 
dram[18]:     20574     15097     23455     23535     15555     16701     20145     13976      6357      6380      7015      7027     12426     12957     16958     17214 
dram[19]:     21618     16683     22081     21834      9965      8356     17911     12815      6352      6330      6878      6892     11366     12229     16148     16781 
dram[20]:     20354     14817     25305     27447     12516     11612     14812     14409      6357      6380      7015      7027     12426     12957     16787     17590 
dram[21]:     21586     16043     23651     24921     12212     11172      6004      6025      6352      6330      6878      6892     11366     12229     15245     16685 
dram[22]:     21271     15599     25348     25896      6769      7334     11992     10344      6357      6380      7015      7027     12426     12957     16771     18338 
dram[23]:     22280     23875     23593     25527     10777     10317      6004      6025      6352      6330      6878      6892     11366     12229     15201     15209 
dram[24]:     20458     16333     26512     26659      9939     14247     11405      9664      6357      6380      7015      7027     12426     12957     16825     17445 
dram[25]:     19403     15800     23922     29389     11357      7224     14419     14618      6352      6330      6878      6892     11366     12229     15678     15727 
dram[26]:     20309     14960     23674     23921      9523     11147     13357      6025      6357      6380      7015      7027     12426     12957     16833     16871 
dram[27]:     23016     19636     24984     25507     12034      8209     11195      6025      6352      6330      6878      6892     11366     12229     15653     15962 
dram[28]:     19679     15249     25140     24470     15082     14877     15631     15662      6357      6380      7015      7027     12426     12957     17152     17255 
dram[29]:     20146     17818     21966     21794     10693     11232     15264     17542      6352      6330      6878      6892     11366     12229     14811     15775 
dram[30]:     19226     14458     22765     29312     14372     14274     11866     17648      6357      6380      7015      7027     12426     12957     16850     17665 
dram[31]:     21192     22414     23135     26762     13667     12977     16173     16682      6352      6330      6878      6892     11366     12229     16047     16256 
average row accesses per activate:
dram[0]:  3.974895  3.904167  4.810811  4.953333  5.738806  5.740741  4.577778  4.628821  4.000000  3.994429  3.695150  3.708333  3.644706  3.665072  3.686441  3.729651 
dram[1]:  3.380753  3.347458  4.293706  4.312500  4.977273  4.905109  3.845188  3.863636  3.475410  3.388889  3.217002  3.315668  3.129252  3.217494  3.270893  3.194286 
dram[2]:  3.916318  3.964912  5.089655  4.746753  5.952381  5.825758  4.600000  4.398305  3.777188  3.961326  3.680460  3.699074  3.545662  3.697115  3.780627  3.826471 
dram[3]:  3.545833  3.516949  4.604167  4.466667  5.128788  5.043796  4.071429  3.961864  3.563025  3.528926  3.158590  3.352804  3.332530  3.289474  3.265027  3.200000 
dram[4]:  4.291667  4.050000  5.275362  5.020134  5.857143  6.031496  4.513274  4.687500  3.718016  3.783641  3.698376  3.714953  3.753056  3.665060  3.908012  3.873874 
dram[5]:  3.459821  3.434389  4.656488  4.641222  4.976744  5.077519  3.896552  3.978541  3.338583  3.350785  3.354460  3.273563  3.239905  3.229665  3.366864  3.275148 
dram[6]:  4.016194  3.987854  4.787500  4.763314  6.000000  5.788733  4.537445  4.523605  3.880109  3.824000  3.675926  3.833735  3.657957  3.685851  3.764045  3.830028 
dram[7]:  3.514056  3.439331  4.258065  4.398693  5.242424  5.000000  3.961039  4.132743  3.475410  3.335938  3.142857  3.177778  3.160183  3.127563  3.375000  3.338068 
dram[8]:  3.926829  4.036735  4.704819  4.843373  5.813433  5.882353  4.586667  4.545455  4.011268  4.085470  3.672018  3.703016  3.603248  3.484234  3.655647  3.684066 
dram[9]:  3.581967  3.686956  4.290123  4.532895  4.928058  4.794520  3.843882  3.928571  3.484931  3.500000  3.270023  3.359155  3.244755  3.202326  3.358543  3.460641 
dram[10]:  3.946281  4.147186  5.461538  5.282759  5.869231  5.932331  4.573991  4.631111  3.912088  3.875676  3.773585  3.675862  3.695238  3.900763  3.740947  3.867052 
dram[11]:  3.550420  3.565401  4.657718  4.589041  5.234375  5.095588  3.926407  3.961373  3.410188  3.327273  3.292627  3.324826  3.159453  3.274463  3.317680  3.422414 
dram[12]:  4.115385  4.088106  5.013158  5.085106  6.023809  6.440678  4.497778  4.567686  3.787234  3.844504  3.675057  3.731308  3.721429  3.706311  3.882521  3.730114 
dram[13]:  3.385593  3.488688  4.503650  4.877049  5.173554  5.262295  3.909091  4.048245  3.573034  3.362205  3.250000  3.260870  3.203747  3.097506  3.311047  3.289855 
dram[14]:  4.091304  4.144186  5.132867  5.107913  5.807407  6.139535  4.553571  4.525862  3.912088  3.826667  3.694444  3.859564  3.601896  3.548009  3.816619  3.768116 
dram[15]:  3.367965  3.544601  4.467626  4.481203  5.123967  5.262712  3.913043  3.978541  3.475410  3.400531  3.218468  3.240363  3.114865  3.202797  3.215084  3.246377 
dram[16]:  3.921260  3.945833  5.058824  4.807947  5.608696  5.421429  4.618182  4.519481  3.827957  3.742188  3.686636  3.643991  3.574713  3.689738  3.813889  3.864307 
dram[17]:  3.371901  3.590090  4.620438  4.880952  5.274194  5.346774  3.846154  3.838174  3.513812  3.278061  3.237020  3.192905  3.184149  3.107552  3.277311  3.219101 
dram[18]:  3.979508  3.979508  4.757764  4.654545  5.750000  5.784173  4.660551  4.560345  3.933702  3.809524  3.581656  3.691076  3.689738  3.557870  3.843305  3.836207 
dram[19]:  3.418033  3.500000  4.375000  4.363014  5.365854  5.157895  4.072072  3.957627  3.392000  3.432000  3.107991  3.281179  3.093333  3.134396  3.308123  3.360465 
dram[20]:  4.021368  3.888889  4.931250  5.066225  5.808824  5.857143  4.804651  4.425000  3.848649  3.799472  3.649886  3.662101  3.642180  3.648456  3.711911  3.863905 
dram[21]:  3.541667  3.733990  4.623077  4.661654  5.161290  5.254098  3.964758  3.878661  3.447155  3.441176  3.297674  3.269406  3.303921  3.274939  3.454545  3.316265 
dram[22]:  3.870690  3.964912  5.204380  4.869281  5.927419  5.816794  4.473684  4.376569  3.807487  3.779528  3.745283  3.596413  3.741463  3.692308  3.796512  3.794721 
dram[23]:  3.563063  3.441442  4.500000  4.681818  4.936000  5.120968  3.930131  3.708000  3.419355  3.369110  3.255708  3.366822  3.421446  3.314770  3.436747  3.299120 
dram[24]:  3.949580  3.914894  4.986301  5.119718  6.105691  5.833333  4.633484  4.681416  3.922865  3.809524  3.561521  3.632883  3.696172  3.636792  3.737892  3.814159 
dram[25]:  3.785000  3.806123  4.558139  4.733871  5.165289  5.112903  3.995595  3.762097  3.533333  3.369110  3.287037  3.261364  3.430380  3.408061  3.417178  3.488746 
dram[26]:  3.971545  4.122271  4.987422  5.047297  6.227642  6.128000  4.576577  4.452991  3.922865  3.850267  3.787234  3.694954  3.740385  3.657895  3.779330  3.876106 
dram[27]:  3.418699  3.407408  4.440790  4.685714  4.962687  4.871428  3.977973  3.978541  3.374005  3.413793  3.172185  3.296128  3.102679  3.167816  3.202156  3.421512 
dram[28]:  4.113122  4.031818  4.912162  5.102941  6.152543  5.920635  4.530973  4.447258  3.827957  3.809524  3.655251  3.741860  3.692857  3.617021  3.862275  3.707101 
dram[29]:  3.506550  3.542601  4.431507  4.573643  4.914729  5.047244  3.965217  3.928571  3.440541  3.487805  3.239278  3.290909  3.193548  3.235294  3.363095  3.357798 
dram[30]:  4.222707  3.961373  4.743750  4.681818  5.833333  5.744525  4.551111  4.330578  3.742782  3.819629  3.744132  3.809524  3.633570  3.645933  3.693151  3.642659 
dram[31]:  3.629630  3.690476  4.601504  4.796748  5.137097  4.916667  4.053571  3.871901  3.443243  3.469003  3.347418  3.392435  3.157773  3.051569  3.348214  3.239193 
average row locality = 564171/148230 = 3.806051
number of total memory accesses made:
dram[0]:         0         0         0         0         0         0         0         0         0         0         0         0         0         0         0         0 
dram[1]:         0         0         0         0         0         0         0         0         0         0         0         0         0         0         0         0 
dram[2]:         0         0         0         0         0         0         0         0         0         0         0         0         0         0         0         0 
dram[3]:         0         0         0         0         0         0         0         0         0         0         0         0         0         0         0         0 
dram[4]:         0         0         0         0         0         0         0         0         0         0         0         0         0         0         0         0 
dram[5]:         0         0         0         0         0         0         0         0         0         0         0         0         0         0         0         0 
dram[6]:         0         0         0         0         0         0         0         0         0         0         0         0         0         0         0         0 
dram[7]:         0         0         0         0         0         0         0         0         0         0         0         0         0         0         0         0 
dram[8]:         0         0         0         0         0         0         0         0         0         0         0         0         0         0         0         0 
dram[9]:         0         0         0         0         0         0         0         0         0         0         0         0         0         0         0         0 
dram[10]:         0         0         0         0         0         0         0         0         0         0         0         0         0         0         0         0 
dram[11]:         0         0         0         0         0         0         0         0         0         0         0         0         0         0         0         0 
dram[12]:         0         0         0         0         0         0         0         0         0         0         0         0         0         0         0         0 
[...]
issued_total_col = 22705 
Row_Bus_Util =  0.215054 
CoL_Bus_Util = 0.514141 
Either_Row_CoL_Bus_Util = 0.610561 
Issued_on_Two_Bus_Simul_Util = 0.118634 
issued_two_Eff = 0.194303 
queue_avg = 39.910236 


dram_util_bins: 0 0 0 0 0 0 0 0 0 0
dram_eff_bins: 0 0 0 0 0 0 0 0 0 0
mrqq: max=64 avg=39.9102
Memory Partition 28: 
Cache L2_bank_056:

Cache L2_bank_057:

In Dram Latency Queue (total = 184): 
DRAM[28]: 16 bks, busW=16 BL=2 CL=12, tRRD=3 tCCD=1, tRCD=12 tRAS=28 tRP=12 tRC=40
n_cmd=44161 n_nop=15477 n_act=4565 n_pre=4549 n_ref_event=0 n_req=18529 n_rd=15873 n_rd_L2_A=0 n_write=0 n_wr_bk=9088 bw_util=0.5652
n_activity=39553 dram_eff=0.6311
bk0: 792a 31122i bk1: 784a 31699i bk2: 672a 36582i bk3: 656a 37557i bk4: 692a 37860i bk5: 704a 37988i bk6: 908a 32149i bk7: 932a 31667i bk8: 1216a 24240i bk9: 1224a 23359i bk10: 1280a 18622i bk11: 1280a 18595i bk12: 1276a 20752i bk13: 1256a 19453i bk14: 1117a 24844i bk15: 1084a 25232i 

------------------------------------------------------------------------

Row_Buffer_Locality = 0.752776
Row_Buffer_Locality_read = 0.808378
Row_Buffer_Locality_write = 0.411969
Bank_Level_Parallism = 6.979239
Bank_Level_Parallism_Col = 4.747037
Bank_Level_Parallism_Ready = 1.920195
write_to_read_ratio_blp_rw_average = 0.412072
GrpLevelPara = 3.065896 

BW Util details:
bwutil = 0.565227 
total_CMD = 44161 
util_bw = 24961 
Wasted_Col = 13291 
Wasted_Row = 909 
Idle = 5000 

BW Util Bottlenecks: 
RCDc_limit = 14161 
RCDWRc_limit = 5625 
WTRc_limit = 7920 
RTWc_limit = 27231 
CCDLc_limit = 9655 
rwq = 0 
CCDLc_limit_alone = 6999 
WTRc_limit_alone = 7219 
RTWc_limit_alone = 25276 

Commands details: 
total_CMD = 44161 
n_nop = 15477 
Read = 15873 
Write = 0 
L2_Alloc = 0 
L2_WB = 9088 
n_act = 4565 
n_pre = 4549 
n_ref = 0 
n_req = 18529 
total_req = 24961 

Dual Bus Interface Util: 
issued_total_row = 9114 
issued_total_col = 24961 
Row_Bus_Util =  0.206381 
CoL_Bus_Util = 0.565227 
Either_Row_CoL_Bus_Util = 0.649532 
Issued_on_Two_Bus_Simul_Util = 0.122076 
issued_two_Eff = 0.187945 
queue_avg = 41.918663 


dram_util_bins: 0 0 0 0 0 0 0 0 0 0
dram_eff_bins: 0 0 0 0 0 0 0 0 0 0
mrqq: max=64 avg=41.9187
Memory Partition 29: 
Cache L2_bank_058:

Cache L2_bank_059:

In Dram Latency Queue (total = 65): 
DRAM[29]: 16 bks, busW=16 BL=2 CL=12, tRRD=3 tCCD=1, tRCD=12 tRAS=28 tRP=12 tRC=40
n_cmd=44161 n_nop=17792 n_act=4593 n_pre=4578 n_ref_event=0 n_req=16448 n_rd=13863 n_rd_L2_A=0 n_write=0 n_wr_bk=8369 bw_util=0.5034
n_activity=38373 dram_eff=0.5794
bk0: 694a 32367i bk1: 698a 32647i bk2: 600a 37227i bk3: 566a 38126i bk4: 598a 38648i bk5: 598a 38024i bk6: 795a 33379i bk7: 813a 32140i bk8: 1064a 25315i bk9: 1071a 23771i bk10: 1120a 19942i bk11: 1120a 19456i bk12: 1117a 21119i bk13: 1110a 21345i bk14: 963a 26011i bk15: 936a 26181i 

------------------------------------------------------------------------

Row_Buffer_Locality = 0.719543
Row_Buffer_Locality_read = 0.780398
Row_Buffer_Locality_write = 0.384432
Bank_Level_Parallism = 6.806482
Bank_Level_Parallism_Col = 4.481859
Bank_Level_Parallism_Ready = 1.786794
write_to_read_ratio_blp_rw_average = 0.432927
GrpLevelPara = 2.931596 

BW Util details:
bwutil = 0.503431 
total_CMD = 44161 
util_bw = 22232 
Wasted_Col = 14228 
Wasted_Row = 1335 
Idle = 6366 

BW Util Bottlenecks: 
RCDc_limit = 15217 
RCDWRc_limit = 6476 
WTRc_limit = 7939 
RTWc_limit = 24665 
CCDLc_limit = 9779 
rwq = 0 
CCDLc_limit_alone = 7093 
WTRc_limit_alone = 7128 
RTWc_limit_alone = 22790 

Commands details: 
total_CMD = 44161 
n_nop = 17792 
Read = 13863 
Write = 0 
L2_Alloc = 0 
L2_WB = 8369 
n_act = 4593 
n_pre = 4578 
n_ref = 0 
n_req = 16448 
total_req = 22232 

Dual Bus Interface Util: 
issued_total_row = 9171 
issued_total_col = 22232 
Row_Bus_Util =  0.207672 
CoL_Bus_Util = 0.503431 
Either_Row_CoL_Bus_Util = 0.597111 
Issued_on_Two_Bus_Simul_Util = 0.113992 
issued_two_Eff = 0.190906 
queue_avg = 37.154751 


dram_util_bins: 0 0 0 0 0 0 0 0 0 0
dram_eff_bins: 0 0 0 0 0 0 0 0 0 0
mrqq: max=64 avg=37.1548
Memory Partition 30: 
Cache L2_bank_060:

Cache L2_bank_061:

In Dram Latency Queue (total = 214): 
DRAM[30]: 16 bks, busW=16 BL=2 CL=12, tRRD=3 tCCD=1, tRCD=12 tRAS=28 tRP=12 tRC=40
n_cmd=44161 n_nop=15136 n_act=4682 n_pre=4667 n_ref_event=0 n_req=18808 n_rd=16249 n_rd_L2_A=0 n_write=0 n_wr_bk=8912 bw_util=0.5698
n_activity=39532 dram_eff=0.6365
bk0: 856a 30446i bk1: 824a 30377i bk2: 721a 36402i bk3: 708a 37192i bk4: 732a 38205i bk5: 744a 37199i bk6: 908a 32333i bk7: 924a 31864i bk8: 1216a 23685i bk9: 1224a 23738i bk10: 1280a 18871i bk11: 1280a 19263i bk12: 1268a 20782i bk13: 1268a 20095i bk14: 1160a 23280i bk15: 1136a 23179i 

------------------------------------------------------------------------

Row_Buffer_Locality = 0.750692
Row_Buffer_Locality_read = 0.805439
Row_Buffer_Locality_write = 0.399289
Bank_Level_Parallism = 7.078709
Bank_Level_Parallism_Col = 4.769131
Bank_Level_Parallism_Ready = 1.884305
write_to_read_ratio_blp_rw_average = 0.403911
GrpLevelPara = 3.115071 

BW Util details:
bwutil = 0.569756 
total_CMD = 44161 
util_bw = 25161 
Wasted_Col = 13381 
Wasted_Row = 793 
Idle = 4826 

BW Util Bottlenecks: 
RCDc_limit = 14453 
RCDWRc_limit = 5875 
WTRc_limit = 9538 
RTWc_limit = 27171 
CCDLc_limit = 10252 
rwq = 0 
CCDLc_limit_alone = 7333 
WTRc_limit_alone = 8585 
RTWc_limit_alone = 25205 

Commands details: 
total_CMD = 44161 
n_nop = 15136 
Read = 16249 
Write = 0 
L2_Alloc = 0 
L2_WB = 8912 
n_act = 4682 
n_pre = 4667 
n_ref = 0 
n_req = 18808 
total_req = 25161 

Dual Bus Interface Util: 
issued_total_row = 9349 
issued_total_col = 25161 
Row_Bus_Util =  0.211703 
CoL_Bus_Util = 0.569756 
Either_Row_CoL_Bus_Util = 0.657254 
Issued_on_Two_Bus_Simul_Util = 0.124205 
issued_two_Eff = 0.188975 
queue_avg = 45.949028 


dram_util_bins: 0 0 0 0 0 0 0 0 0 0
dram_eff_bins: 0 0 0 0 0 0 0 0 0 0
mrqq: max=64 avg=45.949
Memory Partition 31: 
Cache L2_bank_062:

Cache L2_bank_063:

In Dram Latency Queue (total = 184): 
DRAM[31]: 16 bks, busW=16 BL=2 CL=12, tRRD=3 tCCD=1, tRCD=12 tRAS=28 tRP=12 tRC=40
n_cmd=44161 n_nop=18129 n_act=4552 n_pre=4536 n_ref_event=0 n_req=16349 n_rd=13812 n_rd_L2_A=0 n_write=0 n_wr_bk=8160 bw_util=0.4975
n_activity=38010 dram_eff=0.5781
bk0: 690a 32544i bk1: 677a 32749i bk2: 579a 37881i bk3: 563a 38694i bk4: 599a 38538i bk5: 603a 38198i bk6: 792a 32469i bk7: 813a 31421i bk8: 1064a 24291i bk9: 1071a 23066i bk10: 1120a 20242i bk11: 1120a 19598i bk12: 1108a 20786i bk13: 1107a 20412i bk14: 956a 26229i bk15: 950a 26123i 

------------------------------------------------------------------------

Row_Buffer_Locality = 0.720356
Row_Buffer_Locality_read = 0.779314
Row_Buffer_Locality_write = 0.390441
Bank_Level_Parallism = 6.970385
Bank_Level_Parallism_Col = 4.626586
Bank_Level_Parallism_Ready = 1.830648
write_to_read_ratio_blp_rw_average = 0.427483
GrpLevelPara = 3.014590 

BW Util details:
bwutil = 0.497543 
total_CMD = 44161 
util_bw = 21972 
Wasted_Col = 13955 
Wasted_Row = 1318 
Idle = 6916 

BW Util Bottlenecks: 
RCDc_limit = 15283 
RCDWRc_limit = 6230 
WTRc_limit = 8556 
RTWc_limit = 26720 
CCDLc_limit = 9478 
rwq = 0 
CCDLc_limit_alone = 6656 
WTRc_limit_alone = 7737 
RTWc_limit_alone = 24717 

Commands details: 
total_CMD = 44161 
n_nop = 18129 
Read = 13812 
Write = 0 
L2_Alloc = 0 
L2_WB = 8160 
n_act = 4552 
n_pre = 4536 
n_ref = 0 
n_req = 16349 
total_req = 21972 

Dual Bus Interface Util: 
issued_total_row = 9088 
issued_total_col = 21972 
Row_Bus_Util =  0.205792 
CoL_Bus_Util = 0.497543 
Either_Row_CoL_Bus_Util = 0.589479 
Issued_on_Two_Bus_Simul_Util = 0.113856 
issued_two_Eff = 0.193147 
queue_avg = 38.050655 


dram_util_bins: 0 0 0 0 0 0 0 0 0 0
dram_eff_bins: 0 0 0 0 0 0 0 0 0 0
mrqq: max=64 avg=38.0507

========= L2 cache stats =========
L2_cache_bank[0]: Access = 19893, Miss = 13989, Miss_rate = 0.703, Pending_hits = 0, Reservation_fails = 1
L2_cache_bank[1]: Access = 20322, Miss = 14188, Miss_rate = 0.698, Pending_hits = 0, Reservation_fails = 644
L2_cache_bank[2]: Access = 18478, Miss = 13030, Miss_rate = 0.705, Pending_hits = 0, Reservation_fails = 0
L2_cache_bank[3]: Access = 18644, Miss = 13008, Miss_rate = 0.698, Pending_hits = 0, Reservation_fails = 147
L2_cache_bank[4]: Access = 20761, Miss = 14400, Miss_rate = 0.694, Pending_hits = 0, Reservation_fails = 348
L2_cache_bank[5]: Access = 20674, Miss = 14372, Miss_rate = 0.695, Pending_hits = 0, Reservation_fails = 205
L2_cache_bank[6]: Access = 18824, Miss = 13167, Miss_rate = 0.699, Pending_hits = 0, Reservation_fails = 0
L2_cache_bank[7]: Access = 18816, Miss = 13161, Miss_rate = 0.699, Pending_hits = 0, Reservation_fails = 1
L2_cache_bank[8]: Access = 20518, Miss = 14337, Miss_rate = 0.699, Pending_hits = 0, Reservation_fails = 442
L2_cache_bank[9]: Access = 20606, Miss = 14353, Miss_rate = 0.697, Pending_hits = 0, Reservation_fails = 493
L2_cache_bank[10]: Access = 18475, Miss = 12987, Miss_rate = 0.703, Pending_hits = 0, Reservation_fails = 922
L2_cache_bank[11]: Access = 18372, Miss = 12991, Miss_rate = 0.707, Pending_hits = 0, Reservation_fails = 26
L2_cache_bank[12]: Access = 20304, Miss = 14362, Miss_rate = 0.707, Pending_hits = 0, Reservation_fails = 0
L2_cache_bank[13]: Access = 20690, Miss = 14513, Miss_rate = 0.701, Pending_hits = 0, Reservation_fails = 1331
L2_cache_bank[14]: Access = 18716, Miss = 13114, Miss_rate = 0.701, Pending_hits = 0, Reservation_fails = 600
L2_cache_bank[15]: Access = 18704, Miss = 13151, Miss_rate = 0.703, Pending_hits = 0, Reservation_fails = 2
L2_cache_bank[16]: Access = 21199, Miss = 14624, Miss_rate = 0.690, Pending_hits = 0, Reservation_fails = 1063
L2_cache_bank[17]: Access = 21400, Miss = 14714, Miss_rate = 0.688, Pending_hits = 0, Reservation_fails = 1439
L2_cache_bank[18]: Access = 19155, Miss = 13238, Miss_rate = 0.691, Pending_hits = 0, Reservation_fails = 0
L2_cache_bank[19]: Access = 19135, Miss = 13288, Miss_rate = 0.694, Pending_hits = 0, Reservation_fails = 1
L2_cache_bank[20]: Access = 21204, Miss = 14526, Miss_rate = 0.685, Pending_hits = 0, Reservation_fails = 532
L2_cache_bank[21]: Access = 21522, Miss = 14631, Miss_rate = 0.680, Pending_hits = 0, Reservation_fails = 541
L2_cache_bank[22]: Access = 19289, Miss = 13315, Miss_rate = 0.690, Pending_hits = 0, Reservation_fails = 0
L2_cache_bank[23]: Access = 19393, Miss = 13343, Miss_rate = 0.688, Pending_hits = 0, Reservation_fails = 13
L2_cache_bank[24]: Access = 20865, Miss = 14436, Miss_rate = 0.692, Pending_hits = 0, Reservation_fails = 731
L2_cache_bank[25]: Access = 20846, Miss = 14408, Miss_rate = 0.691, Pending_hits = 0, Reservation_fails = 627
L2_cache_bank[26]: Access = 18789, Miss = 12999, Miss_rate = 0.692, Pending_hits = 0, Reservation_fails = 0
L2_cache_bank[27]: Access = 18704, Miss = 12969, Miss_rate = 0.693, Pending_hits = 0, Reservation_fails = 595
L2_cache_bank[28]: Access = 21057, Miss = 14309, Miss_rate = 0.680, Pending_hits = 0, Reservation_fails = 1114
L2_cache_bank[29]: Access = 19992, Miss = 14074, Miss_rate = 0.704, Pending_hits = 0, Reservation_fails = 556
L2_cache_bank[30]: Access = 19023, Miss = 13009, Miss_rate = 0.684, Pending_hits = 0, Reservation_fails = 752
L2_cache_bank[31]: Access = 18158, Miss = 12764, Miss_rate = 0.703, Pending_hits = 0, Reservation_fails = 2
L2_cache_bank[32]: Access = 20766, Miss = 14505, Miss_rate = 0.698, Pending_hits = 0, Reservation_fails = 0
L2_cache_bank[33]: Access = 20127, Miss = 14129, Miss_rate = 0.702, Pending_hits = 0, Reservation_fails = 1614
L2_cache_bank[34]: Access = 18787, Miss = 13043, Miss_rate = 0.694, Pending_hits = 0, Reservation_fails = 3
L2_cache_bank[35]: Access = 18462, Miss = 12952, Miss_rate = 0.702, Pending_hits = 0, Reservation_fails = 47
L2_cache_bank[36]: Access = 20765, Miss = 14333, Miss_rate = 0.690, Pending_hits = 0, Reservation_fails = 1021
L2_cache_bank[37]: Access = 20930, Miss = 14456, Miss_rate = 0.691, Pending_hits = 0, Reservation_fails = 885
L2_cache_bank[38]: Access = 19002, Miss = 13123, Miss_rate = 0.691, Pending_hits = 0, Reservation_fails = 54
L2_cache_bank[39]: Access = 18857, Miss = 13106, Miss_rate = 0.695, Pending_hits = 0, Reservation_fails = 544
L2_cache_bank[40]: Access = 20870, Miss = 14435, Miss_rate = 0.692, Pending_hits = 0, Reservation_fails = 94
L2_cache_bank[41]: Access = 20987, Miss = 14442, Miss_rate = 0.688, Pending_hits = 0, Reservation_fails = 551
L2_cache_bank[42]: Access = 18506, Miss = 12856, Miss_rate = 0.695, Pending_hits = 0, Reservation_fails = 486
L2_cache_bank[43]: Access = 18743, Miss = 12930, Miss_rate = 0.690, Pending_hits = 0, Reservation_fails = 524
L2_cache_bank[44]: Access = 20004, Miss = 14129, Miss_rate = 0.706, Pending_hits = 0, Reservation_fails = 2709
L2_cache_bank[45]: Access = 20745, Miss = 14353, Miss_rate = 0.692, Pending_hits = 0, Reservation_fails = 474
L2_cache_bank[46]: Access = 18283, Miss = 12855, Miss_rate = 0.703, Pending_hits = 0, Reservation_fails = 0
L2_cache_bank[47]: Access = 18774, Miss = 13000, Miss_rate = 0.692, Pending_hits = 0, Reservation_fails = 575
L2_cache_bank[48]: Access = 20532, Miss = 14346, Miss_rate = 0.699, Pending_hits = 0, Reservation_fails = 358
L2_cache_bank[49]: Access = 21218, Miss = 14493, Miss_rate = 0.683, Pending_hits = 0, Reservation_fails = 1260
L2_cache_bank[50]: Access = 18438, Miss = 12898, Miss_rate = 0.700, Pending_hits = 0, Reservation_fails = 322
L2_cache_bank[51]: Access = 18992, Miss = 13063, Miss_rate = 0.688, Pending_hits = 0, Reservation_fails = 555
L2_cache_bank[52]: Access = 21450, Miss = 14588, Miss_rate = 0.680, Pending_hits = 0, Reservation_fails = 185
L2_cache_bank[53]: Access = 21354, Miss = 14586, Miss_rate = 0.683, Pending_hits = 0, Reservation_fails = 646
L2_cache_bank[54]: Access = 19273, Miss = 13184, Miss_rate = 0.684, Pending_hits = 0, Reservation_fails = 663
L2_cache_bank[55]: Access = 19258, Miss = 13254, Miss_rate = 0.688, Pending_hits = 0, Reservation_fails = 136
L2_cache_bank[56]: Access = 21030, Miss = 14364, Miss_rate = 0.683, Pending_hits = 0, Reservation_fails = 919
L2_cache_bank[57]: Access = 20717, Miss = 14317, Miss_rate = 0.691, Pending_hits = 0, Reservation_fails = 375
L2_cache_bank[58]: Access = 18817, Miss = 12937, Miss_rate = 0.688, Pending_hits = 0, Reservation_fails = 752
L2_cache_bank[59]: Access = 18857, Miss = 13051, Miss_rate = 0.692, Pending_hits = 0, Reservation_fails = 12
L2_cache_bank[60]: Access = 20528, Miss = 14291, Miss_rate = 0.696, Pending_hits = 0, Reservation_fails = 226
L2_cache_bank[61]: Access = 20124, Miss = 14166, Miss_rate = 0.704, Pending_hits = 0, Reservation_fails = 644
L2_cache_bank[62]: Access = 18356, Miss = 12845, Miss_rate = 0.700, Pending_hits = 0, Reservation_fails = 14
L2_cache_bank[63]: Access = 18451, Miss = 12961, Miss_rate = 0.702, Pending_hits = 0, Reservation_fails = 77
L2_total_cache_accesses = 1264531
L2_total_cache_misses = 877761
L2_total_cache_miss_rate = 0.6941
L2_total_cache_pending_hits = 0
L2_total_cache_reservation_fails = 29853
L2_total_cache_breakdown:
	L2_cache_stats_breakdown[GLOBAL_ACC_R][HIT] = 0
	L2_cache_stats_breakdown[GLOBAL_ACC_R][HIT_RESERVED] = 0
	L2_cache_stats_breakdown[GLOBAL_ACC_R][MISS] = 130186
	L2_cache_stats_breakdown[GLOBAL_ACC_R][RESERVATION_FAIL] = 29853
	L2_cache_stats_breakdown[GLOBAL_ACC_R][SECTOR_MISS] = 358994
	L2_cache_stats_breakdown[LOCAL_ACC_R][HIT] = 0
	L2_cache_stats_breakdown[LOCAL_ACC_R][HIT_RESERVED] = 0
	L2_cache_stats_breakdown[LOCAL_ACC_R][MISS] = 0
	L2_cache_stats_breakdown[LOCAL_ACC_R][RESERVATION_FAIL] = 0
	L2_cache_stats_breakdown[LOCAL_ACC_R][SECTOR_MISS] = 0
	L2_cache_stats_breakdown[CONST_ACC_R][HIT] = 0
	L2_cache_stats_breakdown[CONST_ACC_R][HIT_RESERVED] = 0
	L2_cache_stats_breakdown[CONST_ACC_R][MISS] = 0
	L2_cache_stats_breakdown[CONST_ACC_R][RESERVATION_FAIL] = 0
	L2_cache_stats_breakdown[CONST_ACC_R][SECTOR_MISS] = 0
	L2_cache_stats_breakdown[TEXTURE_ACC_R][HIT] = 0
	L2_cache_stats_breakdown[TEXTURE_ACC_R][HIT_RESERVED] = 0
	L2_cache_stats_breakdown[TEXTURE_ACC_R][MISS] = 0
	L2_cache_stats_breakdown[TEXTURE_ACC_R][RESERVATION_FAIL] = 0
	L2_cache_stats_breakdown[TEXTURE_ACC_R][SECTOR_MISS] = 0
	L2_cache_stats_breakdown[GLOBAL_ACC_W][HIT] = 386770
	L2_cache_stats_breakdown[GLOBAL_ACC_W][HIT_RESERVED] = 0
	L2_cache_stats_breakdown[GLOBAL_ACC_W][MISS] = 91920
	L2_cache_stats_breakdown[GLOBAL_ACC_W][RESERVATION_FAIL] = 0
	L2_cache_stats_breakdown[GLOBAL_ACC_W][SECTOR_MISS] = 296661
	L2_cache_stats_breakdown[LOCAL_ACC_W][HIT] = 0
	L2_cache_stats_breakdown[LOCAL_ACC_W][HIT_RESERVED] = 0
	L2_cache_stats_breakdown[LOCAL_ACC_W][MISS] = 0
	L2_cache_stats_breakdown[LOCAL_ACC_W][RESERVATION_FAIL] = 0
	L2_cache_stats_breakdown[LOCAL_ACC_W][SECTOR_MISS] = 0
	L2_cache_stats_breakdown[L1_WRBK_ACC][HIT] = 0
	L2_cache_stats_breakdown[L1_WRBK_ACC][HIT_RESERVED] = 0
	L2_cache_stats_breakdown[L1_WRBK_ACC][MISS] = 0
	L2_cache_stats_breakdown[L1_WRBK_ACC][RESERVATION_FAIL] = 0
	L2_cache_stats_breakdown[L1_WRBK_ACC][SECTOR_MISS] = 0
	L2_cache_stats_breakdown[L2_WRBK_ACC][HIT] = 0
	L2_cache_stats_breakdown[L2_WRBK_ACC][HIT_RESERVED] = 0
	L2_cache_stats_breakdown[L2_WRBK_ACC][MISS] = 0
	L2_cache_stats_breakdown[L2_WRBK_ACC][RESERVATION_FAIL] = 0
	L2_cache_stats_breakdown[L2_WRBK_ACC][SECTOR_MISS] = 0
	L2_cache_stats_breakdown[INST_ACC_R][HIT] = 0
	L2_cache_stats_breakdown[INST_ACC_R][HIT_RESERVED] = 0
	L2_cache_stats_breakdown[INST_ACC_R][MISS] = 0
	L2_cache_stats_breakdown[INST_ACC_R][RESERVATION_FAIL] = 0
	L2_cache_stats_breakdown[INST_ACC_R][SECTOR_MISS] = 0
	L2_cache_stats_breakdown[L1_WR_ALLOC_R][HIT] = 0
	L2_cache_stats_breakdown[L1_WR_ALLOC_R][HIT_RESERVED] = 0
	L2_cache_stats_breakdown[L1_WR_ALLOC_R][MISS] = 0
	L2_cache_stats_breakdown[L1_WR_ALLOC_R][RESERVATION_FAIL] = 0
	L2_cache_stats_breakdown[L1_WR_ALLOC_R][SECTOR_MISS] = 0
	L2_cache_stats_breakdown[L2_WR_ALLOC_R][HIT] = 0
	L2_cache_stats_breakdown[L2_WR_ALLOC_R][HIT_RESERVED] = 0
	L2_cache_stats_breakdown[L2_WR_ALLOC_R][MISS] = 0
	L2_cache_stats_breakdown[L2_WR_ALLOC_R][RESERVATION_FAIL] = 0
	L2_cache_stats_breakdown[L2_WR_ALLOC_R][SECTOR_MISS] = 0
	L2_cache_stats_breakdown[GLOBAL_ACC_R][TOTAL_ACCESS] = 489180
	L2_cache_stats_breakdown[GLOBAL_ACC_W][TOTAL_ACCESS] = 775351
L2_total_cache_reservation_fail_breakdown:
	L2_cache_stats_fail_breakdown[GLOBAL_ACC_R][MSHR_ENRTY_FAIL] = 29853
L2_cache_data_port_util = 0.141
L2_cache_fill_port_util = 0.128

icnt_total_pkts_mem_to_simt=1256870
icnt_total_pkts_simt_to_mem=1316541
LD_mem_lat_dist  0 0 0 0 0 0 0 0 0 0 0 0 0 0 0 0 0 0 0 0 0 0 0 0 0 0 0
ST_mem_lat_dist  0 0 0 0 0 0 0 0 0 0 0 0 0 0 0 0 0 0 0 0 0 0 0 0 0 0 0
----------------------------Interconnect-DETAILS--------------------------------
Req_Network_injected_packets_num = 1316541
Req_Network_cycles = 58812
Req_Network_injected_packets_per_cycle =      22.3856 
Req_Network_conflicts_per_cycle =      48.3501
Req_Network_conflicts_per_cycle_util =      53.0239
Req_Bank_Level_Parallism =      23.7886
Req_Network_in_buffer_full_per_cycle =      75.8667
Req_Network_in_buffer_avg_util =     460.5486
Req_Network_out_buffer_full_per_cycle =       5.0548
Req_Network_out_buffer_avg_util =     172.1414

Reply_Network_injected_packets_num = 1258171
Reply_Network_cycles = 58812
Reply_Network_injected_packets_per_cycle =       21.3931
Reply_Network_conflicts_per_cycle =        8.4021
Reply_Network_conflicts_per_cycle_util =       9.6283
Reply_Bank_Level_Parallism =      24.4905
Reply_Network_in_buffer_full_per_cycle =       0.0000
Reply_Network_in_buffer_avg_util =       6.5428
Reply_Network_out_buffer_full_per_cycle =       0.0000
Reply_Network_out_buffer_avg_util =       0.2671
----------------------------END-of-Interconnect-DETAILS-------------------------


gpgpu_simulation_time = 0 days, 0 hrs, 9 min, 27 sec (567 sec)
gpgpu_simulation_rate = 84214 (inst/sec)
gpgpu_simulation_rate = 103 (cycle/sec)
gpgpu_silicon_slowdown = 10990291x
GPGPU-Sim: *** simulation thread exiting ***
GPGPU-Sim: ** break due to reaching the maximum cycles (or instructions) **
GPGPU-Sim: *** exit detected ***
