

        *** GPGPU-Sim Simulator Version 4.0.0  [build gpgpu-sim_git-commit-_modified_0.0] ***


GPGPU-Sim PTX: simulation mode 0 (can change with PTX_SIM_MODE_FUNC environment variable:
               1=functional simulation only, 0=detailed performance simulator)
GPGPU-Sim PTX: overriding embedded ptx with ptx file (PTX_SIM_USE_PTX_FILE is set)
GPGPU-Sim: Configuration options:

-save_embedded_ptx                      0 # saves ptx files embedded in binary as <n>.ptx
-keep                                   0 # keep intermediate files created by GPGPU-Sim when interfacing with external programs
-gpgpu_ptx_save_converted_ptxplus                    0 # Saved converted ptxplus to a file
-gpgpu_occupancy_sm_number                   70 # The SM number to pass to ptxas when getting register usage for computing GPU occupancy. This parameter is required in the config.
-ptx_opcode_latency_int      4,13,4,5,145,21 # Opcode latencies for integers <ADD,MAX,MUL,MAD,DIV,SHFL>Default 1,1,19,25,145,32
-ptx_opcode_latency_fp          4,13,4,5,39 # Opcode latencies for single precision floating points <ADD,MAX,MUL,MAD,DIV>Default 1,1,1,1,30
-ptx_opcode_latency_dp         8,19,8,8,330 # Opcode latencies for double precision floating points <ADD,MAX,MUL,MAD,DIV>Default 8,8,8,8,335
-ptx_opcode_latency_sfu                  100 # Opcode latencies for SFU instructionsDefault 8
-ptx_opcode_latency_tesnor                   64 # Opcode latencies for Tensor instructionsDefault 64
-ptx_opcode_initiation_int          2,2,2,2,8,4 # Opcode initiation intervals for integers <ADD,MAX,MUL,MAD,DIV,SHFL>Default 1,1,4,4,32,4
-ptx_opcode_initiation_fp            2,2,2,2,4 # Opcode initiation intervals for single precision floating points <ADD,MAX,MUL,MAD,DIV>Default 1,1,1,1,5
-ptx_opcode_initiation_dp          4,4,4,4,130 # Opcode initiation intervals for double precision floating points <ADD,MAX,MUL,MAD,DIV>Default 8,8,8,8,130
-ptx_opcode_initiation_sfu                    8 # Opcode initiation intervals for sfu instructionsDefault 8
-ptx_opcode_initiation_tensor                   64 # Opcode initiation intervals for tensor instructionsDefault 64
-cdp_latency         7200,8000,100,12000,1600 # CDP API latency <cudaStreamCreateWithFlags, cudaGetParameterBufferV2_init_perWarp, cudaGetParameterBufferV2_perKernel, cudaLaunchDeviceV2_init_perWarp, cudaLaunchDevicV2_perKernel>Default 7200,8000,100,12000,1600
-network_mode                           2 # Interconnection network mode
-inter_config_file                   mesh # Interconnection network config file
-icnt_in_buffer_limit                  512 # in_buffer_limit
-icnt_out_buffer_limit                  512 # out_buffer_limit
-icnt_subnets                           2 # subnets
-icnt_arbiter_algo                      1 # arbiter_algo
-icnt_verbose                           0 # inct_verbose
-icnt_grant_cycles                      1 # grant_cycles
-gpgpu_ptx_use_cuobjdump                    1 # Use cuobjdump to extract ptx and sass from binaries
-gpgpu_experimental_lib_support                    0 # Try to extract code from cuda libraries [Broken because of unknown cudaGetExportTable]
-checkpoint_option                      0 #  checkpointing flag (0 = no checkpoint)
-checkpoint_kernel                      1 #  checkpointing during execution of which kernel (1- 1st kernel)
-checkpoint_CTA                         0 #  checkpointing after # of CTA (< less than total CTA)
-resume_option                          0 #  resume flag (0 = no resume)
-resume_kernel                          0 #  Resume from which kernel (1= 1st kernel)
-resume_CTA                             0 #  resume from which CTA 
-checkpoint_CTA_t                       0 #  resume from which CTA 
-checkpoint_insn_Y                      0 #  resume from which CTA 
-gpgpu_ptx_convert_to_ptxplus                    0 # Convert SASS (native ISA) to ptxplus and run ptxplus
-gpgpu_ptx_force_max_capability                   70 # Force maximum compute capability
-gpgpu_ptx_inst_debug_to_file                    0 # Dump executed instructions' debug information to file
-gpgpu_ptx_inst_debug_file       inst_debug.txt # Executed instructions' debug output file
-gpgpu_ptx_inst_debug_thread_uid                    1 # Thread UID for executed instructions' debug output
-gpgpu_n_mem_for_l2wb_pcommit                   32 # number of memory modules (e.g. memory controllers) in gpu
-gpgpu_n_sub_partition_per_mchannel_for_l2wb_pcommit                    2 # number of memory subpartition in each memory module
-gpgpu_dl2_bsize_for_l2wb_pcommit                  128 # default 128 bytes
-gpgpu_simd_model                       1 # 1 = post-dominator
-gpgpu_shader_core_pipeline              2048:32 # shader core pipeline config, i.e., {<nthread>:<warpsize>}
-gpgpu_tex_cache:l1  N:4:128:256,L:R:m:N:L,T:512:8,128:2 # per-shader L1 texture cache  (READ-ONLY) config  {<nsets>:<bsize>:<assoc>,<rep>:<wr>:<alloc>:<wr_alloc>,<mshr>:<N>:<merge>,<mq>:<rf>}
-gpgpu_const_cache:l1 N:128:64:8,L:R:f:N:L,S:2:64,4 # per-shader L1 constant memory cache  (READ-ONLY) config  {<nsets>:<bsize>:<assoc>,<rep>:<wr>:<alloc>:<wr_alloc>,<mshr>:<N>:<merge>,<mq>} 
-gpgpu_cache:il1     N:64:128:16,L:R:f:N:L,S:2:48,4 # shader L1 instruction cache config  {<nsets>:<bsize>:<assoc>,<rep>:<wr>:<alloc>:<wr_alloc>,<mshr>:<N>:<merge>,<mq>} 
-gpgpu_cache:dl1     S:1:128:256,L:L:s:N:L,A:256:8,16:0,32 # per-shader L1 data cache config  {<nsets>:<bsize>:<assoc>,<rep>:<wr>:<alloc>:<wr_alloc>,<mshr>:<N>:<merge>,<mq> | none}
-gpgpu_l1_banks                         4 # The number of L1 cache banks
-gpgpu_l1_banks_byte_interleaving                   32 # l1 banks byte interleaving granularity
-gpgpu_l1_banks_hashing_function                    0 # l1 banks hashing function
-gpgpu_l1_latency                      20 # L1 Hit Latency
-gpgpu_smem_latency                    20 # smem Latency
-gpgpu_cache:dl1PrefL1                 none # per-shader L1 data cache config  {<nsets>:<bsize>:<assoc>,<rep>:<wr>:<alloc>:<wr_alloc>,<mshr>:<N>:<merge>,<mq> | none}
-gpgpu_cache:dl1PrefShared                 none # per-shader L1 data cache config  {<nsets>:<bsize>:<assoc>,<rep>:<wr>:<alloc>:<wr_alloc>,<mshr>:<N>:<merge>,<mq> | none}
-gpgpu_gmem_skip_L1D                    0 # global memory access skip L1D cache (implements -Xptxas -dlcm=cg, default=no skip)
-gpgpu_perfect_mem                      0 # enable perfect memory mode (no cache miss)
-n_regfile_gating_group                    4 # group of lanes that should be read/written together)
-gpgpu_clock_gated_reg_file                    0 # enable clock gated reg file for power calculations
-gpgpu_clock_gated_lanes                    0 # enable clock gated lanes for power calculations
-gpgpu_shader_registers                65536 # Number of registers per shader core. Limits number of concurrent CTAs. (default 8192)
-gpgpu_registers_per_block                65536 # Maximum number of registers per CTA. (default 8192)
-gpgpu_ignore_resources_limitation                    0 # gpgpu_ignore_resources_limitation (default 0)
-gpgpu_shader_cta                      32 # Maximum number of concurrent CTAs in shader (default 8)
-gpgpu_num_cta_barriers                   16 # Maximum number of named barriers per CTA (default 16)
-gpgpu_n_clusters                      80 # number of processing clusters
-gpgpu_n_cores_per_cluster                    1 # number of simd cores per cluster
-gpgpu_n_cluster_ejection_buffer_size                   32 # number of packets in ejection buffer
-gpgpu_n_ldst_response_buffer_size                    2 # number of response packets in ld/st unit ejection buffer
-gpgpu_shmem_per_block                65536 # Size of shared memory per thread block or CTA (default 48kB)
-gpgpu_shmem_size                   98304 # Size of shared memory per shader core (default 16kB)
-gpgpu_adaptive_cache_config            536870913 # adaptive_cache_config
-gpgpu_shmem_sizeDefault                98304 # Size of shared memory per shader core (default 16kB)
-gpgpu_shmem_size_PrefL1                16384 # Size of shared memory per shader core (default 16kB)
-gpgpu_shmem_size_PrefShared                16384 # Size of shared memory per shader core (default 16kB)
-gpgpu_shmem_num_banks                   32 # Number of banks in the shared memory in each shader core (default 16)
-gpgpu_shmem_limited_broadcast                    0 # Limit shared memory to do one broadcast per cycle (default on)
-gpgpu_shmem_warp_parts                    1 # Number of portions a warp is divided into for shared memory bank conflict check 
-gpgpu_mem_unit_ports                    1 # The number of memory transactions allowed per core cycle
-gpgpu_shmem_warp_parts                    1 # Number of portions a warp is divided into for shared memory bank conflict check 
-gpgpu_warpdistro_shader                   -1 # Specify which shader core to collect the warp size distribution from
-gpgpu_warp_issue_shader                    0 # Specify which shader core to collect the warp issue distribution from
-gpgpu_local_mem_map                    1 # Mapping from local memory space address to simulated GPU physical address space (default = enabled)
-gpgpu_num_reg_banks                   16 # Number of register banks (default = 8)
-gpgpu_reg_bank_use_warp_id                    0 # Use warp ID in mapping registers to banks (default = off)
-gpgpu_sub_core_model                    1 # Sub Core Volta/Pascal model (default = off)
-gpgpu_enable_specialized_operand_collector                    0 # enable_specialized_operand_collector
-gpgpu_operand_collector_num_units_sp                    4 # number of collector units (default = 4)
-gpgpu_operand_collector_num_units_dp                    0 # number of collector units (default = 0)
-gpgpu_operand_collector_num_units_sfu                    4 # number of collector units (default = 4)
-gpgpu_operand_collector_num_units_int                    0 # number of collector units (default = 0)
-gpgpu_operand_collector_num_units_tensor_core                    4 # number of collector units (default = 4)
-gpgpu_operand_collector_num_units_mem                    2 # number of collector units (default = 2)
-gpgpu_operand_collector_num_units_gen                    8 # number of collector units (default = 0)
-gpgpu_operand_collector_num_in_ports_sp                    1 # number of collector unit in ports (default = 1)
-gpgpu_operand_collector_num_in_ports_dp                    0 # number of collector unit in ports (default = 0)
-gpgpu_operand_collector_num_in_ports_sfu                    1 # number of collector unit in ports (default = 1)
-gpgpu_operand_collector_num_in_ports_int                    0 # number of collector unit in ports (default = 0)
-gpgpu_operand_collector_num_in_ports_tensor_core                    1 # number of collector unit in ports (default = 1)
-gpgpu_operand_collector_num_in_ports_mem                    1 # number of collector unit in ports (default = 1)
-gpgpu_operand_collector_num_in_ports_gen                    8 # number of collector unit in ports (default = 0)
-gpgpu_operand_collector_num_out_ports_sp                    1 # number of collector unit in ports (default = 1)
-gpgpu_operand_collector_num_out_ports_dp                    0 # number of collector unit in ports (default = 0)
-gpgpu_operand_collector_num_out_ports_sfu                    1 # number of collector unit in ports (default = 1)
-gpgpu_operand_collector_num_out_ports_int                    0 # number of collector unit in ports (default = 0)
-gpgpu_operand_collector_num_out_ports_tensor_core                    1 # number of collector unit in ports (default = 1)
-gpgpu_operand_collector_num_out_ports_mem                    1 # number of collector unit in ports (default = 1)
-gpgpu_operand_collector_num_out_ports_gen                    8 # number of collector unit in ports (default = 0)
-gpgpu_coalesce_arch                   60 # Coalescing arch (GT200 = 13, Fermi = 20)
-gpgpu_num_sched_per_core                    4 # Number of warp schedulers per core
-gpgpu_max_insn_issue_per_warp                    1 # Max number of instructions that can be issued per warp in one cycle by scheduler (either 1 or 2)
-gpgpu_dual_issue_diff_exec_units                    1 # should dual issue use two different execution unit resources (Default = 1)
-gpgpu_simt_core_sim_order                    1 # Select the simulation order of cores in a cluster (0=Fix, 1=Round-Robin)
-gpgpu_pipeline_widths 4,4,4,4,4,4,4,4,4,4,8,4,4 # Pipeline widths ID_OC_SP,ID_OC_DP,ID_OC_INT,ID_OC_SFU,ID_OC_MEM,OC_EX_SP,OC_EX_DP,OC_EX_INT,OC_EX_SFU,OC_EX_MEM,EX_WB,ID_OC_TENSOR_CORE,OC_EX_TENSOR_CORE
-gpgpu_tensor_core_avail                    1 # Tensor Core Available (default=0)
-gpgpu_num_sp_units                     4 # Number of SP units (default=1)
-gpgpu_num_dp_units                     4 # Number of DP units (default=0)
-gpgpu_num_int_units                    4 # Number of INT units (default=0)
-gpgpu_num_sfu_units                    4 # Number of SF units (default=1)
-gpgpu_num_tensor_core_units                    4 # Number of tensor_core units (default=1)
-gpgpu_num_mem_units                    1 # Number if ldst units (default=1) WARNING: not hooked up to anything
-gpgpu_scheduler                      gto # Scheduler configuration: < lrr | gto | two_level_active > If two_level_active:<num_active_warps>:<inner_prioritization>:<outer_prioritization>For complete list of prioritization values see shader.h enum scheduler_prioritization_typeDefault: gto
-gpgpu_concurrent_kernel_sm                    0 # Support concurrent kernels on a SM (default = disabled)
-gpgpu_perfect_inst_const_cache                    1 # perfect inst and const cache mode, so all inst and const hits in the cache(default = disabled)
-gpgpu_inst_fetch_throughput                    4 # the number of fetched intruction per warp each cycle
-gpgpu_reg_file_port_throughput                    2 # the number ports of the register file
-specialized_unit_1         0,4,4,4,4,BRA # specialized unit config {<enabled>,<num_units>:<latency>:<initiation>,<ID_OC_SPEC>:<OC_EX_SPEC>,<NAME>}
-specialized_unit_2         0,4,4,4,4,BRA # specialized unit config {<enabled>,<num_units>:<latency>:<initiation>,<ID_OC_SPEC>:<OC_EX_SPEC>,<NAME>}
-specialized_unit_3         0,4,4,4,4,BRA # specialized unit config {<enabled>,<num_units>:<latency>:<initiation>,<ID_OC_SPEC>:<OC_EX_SPEC>,<NAME>}
-specialized_unit_4         0,4,4,4,4,BRA # specialized unit config {<enabled>,<num_units>:<latency>:<initiation>,<ID_OC_SPEC>:<OC_EX_SPEC>,<NAME>}
-specialized_unit_5         0,4,4,4,4,BRA # specialized unit config {<enabled>,<num_units>:<latency>:<initiation>,<ID_OC_SPEC>:<OC_EX_SPEC>,<NAME>}
-specialized_unit_6         0,4,4,4,4,BRA # specialized unit config {<enabled>,<num_units>:<latency>:<initiation>,<ID_OC_SPEC>:<OC_EX_SPEC>,<NAME>}
-specialized_unit_7         0,4,4,4,4,BRA # specialized unit config {<enabled>,<num_units>:<latency>:<initiation>,<ID_OC_SPEC>:<OC_EX_SPEC>,<NAME>}
-specialized_unit_8         0,4,4,4,4,BRA # specialized unit config {<enabled>,<num_units>:<latency>:<initiation>,<ID_OC_SPEC>:<OC_EX_SPEC>,<NAME>}
-gpgpu_perf_sim_memcpy                    1 # Fill the L2 cache on memcpy
-gpgpu_simple_dram_model                    0 # simple_dram_model with fixed latency and BW
-gpgpu_dram_scheduler                    1 # 0 = fifo, 1 = FR-FCFS (defaul)
-gpgpu_dram_partition_queues          64:64:64:64 # i2$:$2d:d2$:$2i
-l2_ideal                               0 # Use a ideal L2 cache that always hit
-gpgpu_cache:dl2     S:32:128:24,L:B:m:L:P,A:192:4,32:0,32 # unified banked L2 data cache config  {<nsets>:<bsize>:<assoc>,<rep>:<wr>:<alloc>:<wr_alloc>,<mshr>:<N>:<merge>,<mq>}
-gpgpu_cache:dl2_texture_only                    0 # L2 cache used for texture only
-gpgpu_n_mem                           32 # number of memory modules (e.g. memory controllers) in gpu
-gpgpu_n_sub_partition_per_mchannel                    2 # number of memory subpartition in each memory module
-gpgpu_n_mem_per_ctrlr                    1 # number of memory chips per memory controller
-gpgpu_memlatency_stat                   14 # track and display latency statistics 0x2 enables MC, 0x4 enables queue logs
-gpgpu_frfcfs_dram_sched_queue_size                   64 # 0 = unlimited (default); # entries per chip
-gpgpu_dram_return_queue_size                  192 # 0 = unlimited (default); # entries per chip
-gpgpu_dram_buswidth                   16 # default = 4 bytes (8 bytes per cycle at DDR)
-gpgpu_dram_burst_length                    2 # Burst length of each DRAM request (default = 4 data bus cycle)
-dram_data_command_freq_ratio                    2 # Frequency ratio between DRAM data bus and command bus (default = 2 times, i.e. DDR)
-gpgpu_dram_timing_opt nbk=16:CCD=1:RRD=3:RCD=12:RAS=28:RP=12:RC=40: CL=12:WL=2:CDLR=3:WR=10:nbkgrp=4:CCDL=2:RTPL=3 # DRAM timing parameters = {nbk:tCCD:tRRD:tRCD:tRAS:tRP:tRC:CL:WL:tCDLR:tWR:nbkgrp:tCCDL:tRTPL}
-gpgpu_l2_rop_latency                  160 # ROP queue latency (default 85)
-dram_latency                         200 # DRAM latency (default 30)
-dram_write_latency                   600 # DRAM write latency (default 100)
-dram_dual_bus_interface                    1 # dual_bus_interface (default = 0) 
-dram_bnk_indexing_policy                    0 # dram_bnk_indexing_policy (0 = normal indexing, 1 = Xoring with the higher bits) (Default = 0)
-dram_bnkgrp_indexing_policy                    1 # dram_bnkgrp_indexing_policy (0 = take higher bits, 1 = take lower bits) (Default = 0)
-dram_seperate_write_queue_enable                    0 # Seperate_Write_Queue_Enable
-dram_write_queue_size             32:28:16 # Write_Queue_Size
-dram_elimnate_rw_turnaround                    0 # elimnate_rw_turnaround i.e set tWTR and tRTW = 0
-icnt_flit_size                        40 # icnt_flit_size
-gpgpu_mem_addr_mapping dramid@8;00000000.00000000.00000000.00000000.0000RRRR.RRRRRRRR.RBBBCCCB.CCCSSSSS # mapping memory address to dram model {dramid@<start bit>;<memory address map>}
-gpgpu_mem_addr_test                    0 # run sweep test to check address mapping for aliased address
-gpgpu_mem_address_mask                    1 # 0 = old addressing mask, 1 = new addressing mask, 2 = new add. mask + flipped bank sel and chip sel bits
-gpgpu_memory_partition_indexing                    0 # 0 = no indexing, 1 = bitwise xoring, 2 = IPoly, 3 = custom indexing
-gpuwattch_xml_file         gpuwattch.xml # GPUWattch XML file
-power_simulation_enabled                    0 # Turn on power simulator (1=On, 0=Off)
-power_per_cycle_dump                    0 # Dump detailed power output each cycle
-power_trace_enabled                    0 # produce a file for the power trace (1=On, 0=Off)
-power_trace_zlevel                     6 # Compression level of the power trace output log (0=no comp, 9=highest)
-steady_power_levels_enabled                    0 # produce a file for the steady power levels (1=On, 0=Off)
-steady_state_definition                  8:4 # allowed deviation:number of samples
-gpgpu_max_cycle                        0 # terminates gpu simulation early (0 = no limit)
-gpgpu_max_insn                         0 # terminates gpu simulation early (0 = no limit)
-gpgpu_max_cta                          0 # terminates gpu simulation early (0 = no limit)
-gpgpu_max_completed_cta                    0 # terminates gpu simulation early (0 = no limit)
-gpgpu_runtime_stat                   500 # display runtime statistics such as dram utilization {<freq>:<flag>}
-liveness_message_freq                    1 # Minimum number of seconds between simulation liveness messages (0 = always print)
-gpgpu_compute_capability_major                    7 # Major compute capability version number
-gpgpu_compute_capability_minor                    0 # Minor compute capability version number
-gpgpu_flush_l1_cache                    1 # Flush L1 cache at the end of each kernel call
-gpgpu_flush_l2_cache                    0 # Flush L2 cache at the end of each kernel call
-gpgpu_deadlock_detect                    1 # Stop the simulation at deadlock (1=on (default), 0=off)
-gpgpu_ptx_instruction_classification                    0 # if enabled will classify ptx instruction types per kernel (Max 255 kernels now)
-gpgpu_ptx_sim_mode                     0 # Select between Performance (default) or Functional simulation (1)
-gpgpu_clock_domains 1132.0:1132.0:1132.0:850.0 # Clock Domain Frequencies in MhZ {<Core Clock>:<ICNT Clock>:<L2 Clock>:<DRAM Clock>}
-gpgpu_max_concurrent_kernel                    8 # maximum kernels that can run concurrently on GPU
-gpgpu_cflog_interval                    0 # Interval between each snapshot in control flow logger
-visualizer_enabled               aba409cdbdcf5d87e4fb869062f2b691  /home/pli11/Desktop/re_test/ProgPow/ethash_calculate_dag_item/undo_c_wt+idem/main
Extracting PTX file and ptxas options    1: main.1.sm_70.ptx -arch=sm_70
      0 # Turn on visualizer output (1=On, 0=Off)
-visualizer_outputfile                 NULL # Specifies the output log file for visualizer
-visualizer_zlevel                      6 # Compression level of the visualizer output log (0=no comp, 9=highest)
-gpgpu_stack_size_limit                 1024 # GPU thread stack size
-gpgpu_heap_size_limit              8388608 # GPU malloc heap size 
-gpgpu_runtime_sync_depth_limit                    2 # GPU device runtime synchronize depth
-gpgpu_runtime_pending_launch_count_limit                 2048 # GPU device runtime pending launch count
-trace_enabled                          0 # Turn on traces
-trace_components                    none # comma seperated list of traces to enable. Complete list found in trace_streams.tup. Default none
-trace_sampling_core                    0 # The core which is printed using CORE_DPRINTF. Default 0
-trace_sampling_memory_partition                   -1 # The memory partition which is printed using MEMPART_DPRINTF. Default -1 (i.e. all)
-enable_ptx_file_line_stats                    1 # Turn on PTX source line statistic profiling. (1 = On)
-ptx_line_stats_filename gpgpu_inst_stats.txt # Output file for PTX source line statistics.
-gpgpu_kernel_launch_latency                 5000 # Kernel launch latency in cycles. Default: 0
-gpgpu_cdp_enabled                      0 # Turn on CDP
-gpgpu_TB_launch_latency                    0 # thread block launch latency in cycles. Default: 0
DRAM Timing Options:
nbk                                    16 # number of banks
CCD                                     1 # column to column delay
RRD                                     3 # minimal delay between activation of rows in different banks
RCD                                    12 # row to column delay
RAS                                    28 # time needed to activate row
RP                                     12 # time needed to precharge (deactivate) row
RC                                     40 # row cycle time
CDLR                                    3 # switching from write to read (changes tWTR)
WR                                     10 # last data-in to row precharge
CL                                     12 # CAS latency
WL                                      2 # Write latency
nbkgrp                                  4 # number of bank groups
CCDL                                    2 # column to column delay between accesses to different bank groups
RTPL                                    3 # read to precharge delay between accesses to different bank groups
Total number of memory sub partition = 64
addr_dec_mask[CHIP]  = 0000000000001f00 	high:13 low:8
addr_dec_mask[BK]    = 00000000000e2000 	high:20 low:13
addr_dec_mask[ROW]   = 00000001fff00000 	high:33 low:20
addr_dec_mask[COL]   = 000000000001c0ff 	high:17 low:0
addr_dec_mask[BURST] = 000000000000001f 	high:5 low:0
sub_partition_id_mask = 0000000000002000
GPGPU-Sim uArch: clock freqs: 1132000000.000000:1132000000.000000:1132000000.000000:850000000.000000
GPGPU-Sim uArch: clock periods: 0.00000000088339222615:0.00000000088339222615:0.00000000088339222615:0.00000000117647058824
*** Initializing Memory Statistics ***
GPGPU-Sim uArch: performance model initialization complete.
self exe links to: /home/pli11/Desktop/re_test/ProgPow/ethash_calculate_dag_item/undo_c_wt+idem/main
self exe links to: /home/pli11/Desktop/re_test/ProgPow/ethash_calculate_dag_item/undo_c_wt+idem/main
10.1
GPGPU-Sim PTX: __cudaRegisterFatBinary, fat_cubin_handle = 1, filename=default
self exe links to: /home/pli11/Desktop/re_test/ProgPow/ethash_calculate_dag_item/undo_c_wt+idem/main
Running md5sum using "md5sum /home/pli11/Desktop/re_test/ProgPow/ethash_calculate_dag_item/undo_c_wt+idem/main "
self exe links to: /home/pli11/Desktop/re_test/ProgPow/ethash_calculate_dag_item/undo_c_wt+idem/main
Extracting specific PTX file named main.1.sm_70.ptx 
GPGPU-Sim PTX: __cudaRegisterFunction _Z25ethash_calculate_dag_itemjP8hash64_tmS0_j : hostFun 0x0x4123e6, fat_cubin_handle = 1
GPGPU-Sim PTX: Parsing main.1.sm_70.ptx
GPGPU-Sim PTX: allocating constant region for "keccakf_rndc" from 0x100 to 0x1c0 (global memory space) 1
GPGPU-Sim PTX: allocating global region for "NVM_log" from 0x200 to 0x4000200 (global memory space)
GPGPU-Sim PTX: allocating global region for "NVM_flag" from 0x4000200 to 0x4400200 (global memory space)
GPGPU-Sim PTX: instruction assembly for function '_Z25ethash_calculate_dag_itemjP8hash64_tmS0_j'...   done.
GPGPU-Sim PTX: finished parsing EMBEDDED .ptx file main.1.sm_70.ptx
GPGPU-Sim PTX: loading globals with explicit initializers... 
GPGPU-Sim PTX: finished loading globals (0 bytes total).
GPGPU-Sim PTX: loading constants with explicit initializers...  done.
GPGPU-Sim PTX: Loading PTXInfo from main.1.sm_70.ptx
GPGPU-Sim PTX: Binary info : gmem=71303168, cmem=192
GPGPU-Sim PTX: Kernel '_Z25ethash_calculate_dag_itemjP8hash64_tmS0_j' : regs=80, lmem=0, smem=0, cmem=388
GPGPU-Sim PTX: __cudaRegisterVar: hostVar = 0x41c4c0; deviceAddress = keccakf_rndc; deviceName = keccakf_rndc
GPGPU-Sim PTX: __cudaRegisterVar: Registering const memory space of 192 bytes
GPGPU-Sim PTX registering constant keccakf_rndc (192 bytes) to name mapping
GPGPU-Sim PTX: __cudaRegisterVar: hostVar = 0x6bf9c0; deviceAddress = NVM_log; deviceName = NVM_log
GPGPU-Sim PTX: __cudaRegisterVar: Registering const memory space of 67108864 bytes
GPGPU-Sim PTX registering global NVM_log hostVar to name mapping
GPGPU-Sim PTX: __cudaRegisterVar: hostVar = 0x46bf9c0; deviceAddress = NVM_flag; deviceName = NVM_flag
GPGPU-Sim PTX: __cudaRegisterVar: Registering const memory space of 4194304 bytes
GPGPU-Sim PTX registering global NVM_flag hostVar to name mapping
Set Device to current
Resetting device
Allocating light with size: 16907456
Generating mining buffers
GPGPU-Sim PTX: cudaStreamCreate
GPGPU-Sim PTX: cudaStreamCreate
Generating DAG for GPU #0 with dagBytes: 1082130304 gridSize: 4
fullRuns=16512
GPGPU-Sim PTX: Setting up arguments for 4 bytes starting at 0x7fff7b18cf9c..
GPGPU-Sim PTX: Setting up arguments for 8 bytes starting at 0x7fff7b18cf90..
GPGPU-Sim PTX: Setting up arguments for 8 bytes starting at 0x7fff7b18cf88..
GPGPU-Sim PTX: Setting up arguments for 8 bytes starting at 0x7fff7b18cf80..
GPGPU-Sim PTX: Setting up arguments for 4 bytes starting at 0x7fff7b18cf98..

GPGPU-Sim PTX: cudaLaunch for 0x0x4123e6 (mode=performance simulation) on stream 1
GPGPU-Sim PTX: finding reconvergence points for '_Z25ethash_calculate_dag_itemjP8hash64_tmS0_j'...
GPGPU-Sim PTX: Finding dominators for '_Z25ethash_calculate_dag_itemjP8hash64_tmS0_j'...
GPGPU-Sim PTX: Finding immediate dominators for '_Z25ethash_calculate_dag_itemjP8hash64_tmS0_j'...
GPGPU-Sim PTX: Finding postdominators for '_Z25ethash_calculate_dag_itemjP8hash64_tmS0_j'...
GPGPU-Sim PTX: Finding immediate postdominators for '_Z25ethash_calculate_dag_itemjP8hash64_tmS0_j'...
GPGPU-Sim PTX: pre-decoding instructions for '_Z25ethash_calculate_dag_itemjP8hash64_tmS0_j'...
GPGPU-Sim PTX: reconvergence points for _Z25ethash_calculate_dag_itemjP8hash64_tmS0_j...
GPGPU-Sim PTX:  1 (potential) branch divergence @  PC=0x080 (main.1.sm_70.ptx:47) @%p4102 bra BB0_2580;
GPGPU-Sim PTX:    immediate post dominator      @  PC=0x2bae0 (main.1.sm_70.ptx:26706) ret;
GPGPU-Sim PTX:  2 (potential) branch divergence @  PC=0x0d0 (main.1.sm_70.ptx:58) @%p4103 bra BB0_3;
GPGPU-Sim PTX:    immediate post dominator      @  PC=0x140 (main.1.sm_70.ptx:79) cvt.u64.u32%rd3, %r5993;
GPGPU-Sim PTX:  3 (potential) branch divergence @  PC=0x158 (main.1.sm_70.ptx:82) @%p4104 bra BB0_5;
GPGPU-Sim PTX:    immediate post dominator      @  PC=0x190 (main.1.sm_70.ptx:94) shl.b64 %rd6298, %rd7648, 6;
GPGPU-Sim PTX:  4 (potential) branch divergence @  PC=0x168 (main.1.sm_70.ptx:85) bra.uni BB0_6;
GPGPU-Sim PTX:    immediate post dominator      @  PC=0x190 (main.1.sm_70.ptx:94) shl.b64 %rd6298, %rd7648, 6;
GPGPU-Sim PTX:  5 (potential) branch divergence @  PC=0xb20 (main.1.sm_70.ptx:605) @%p4105 bra BB0_7;
GPGPU-Sim PTX:    immediate post dominator      @  PC=0xb28 (main.1.sm_70.ptx:607) mov.u32 %r24702, %tid.x;
GPGPU-Sim PTX:  6 (potential) branch divergence @  PC=0xbd8 (main.1.sm_70.ptx:631) @%p4107 bra BB0_11;
GPGPU-Sim PTX:    immediate post dominator      @  PC=0xc40 (main.1.sm_70.ptx:647) shfl.sync.idx.b32 %r17|%p5, %r6084, %r6051, %r6081, %r6082;
GPGPU-Sim PTX:  7 (potential) branch divergence @  PC=0xc60 (main.1.sm_70.ptx:651) @%p4107 bra BB0_13;
GPGPU-Sim PTX:    immediate post dominator      @  PC=0xcc8 (main.1.sm_70.ptx:667) shfl.sync.idx.b32 %r21|%p9, %r6084, %r6061, %r6081, %r6082;
GPGPU-Sim PTX:  8 (potential) branch divergence @  PC=0xce8 (main.1.sm_70.ptx:671) @%p4107 bra BB0_15;
GPGPU-Sim PTX:    immediate post dominator      @  PC=0xd50 (main.1.sm_70.ptx:687) shfl.sync.idx.b32 %r25|%p13, %r6084, %r6052, %r6081, %r6082;
GPGPU-Sim PTX:  9 (potential) branch divergence @  PC=0xd70 (main.1.sm_70.ptx:691) @%p4107 bra BB0_17;
GPGPU-Sim PTX:    immediate post dominator      @  PC=0xdd8 (main.1.sm_70.ptx:707) add.s32 %r24735, %r24735, 1;
GPGPU-Sim PTX: 10 (potential) branch divergence @  PC=0xde8 (main.1.sm_70.ptx:709) @%p4111 bra BB0_9;
GPGPU-Sim PTX:    immediate post dominator      @  PC=0xdf0 (main.1.sm_70.ptx:711) xor.b32 %r6147, %r6043, 1;
GPGPU-Sim PTX: 11 (potential) branch divergence @  PC=0xe78 (main.1.sm_70.ptx:730) @%p4113 bra BB0_21;
GPGPU-Sim PTX:    immediate post dominator      @  PC=0xee0 (main.1.sm_70.ptx:746) shfl.sync.idx.b32 %r40|%p21, %r6156, %r6051, %r6081, %r6082;
GPGPU-Sim PTX: 12 (potential) branch divergence @  PC=0xf00 (main.1.sm_70.ptx:750) @%p4113 bra BB0_23;
GPGPU-Sim PTX:    immediate post dominator      @  PC=0xf68 (main.1.sm_70.ptx:766) shfl.sync.idx.b32 %r44|%p25, %r6156, %r6061, %r6081, %r6082;
GPGPU-Sim PTX: 13 (potential) branch divergence @  PC=0xf88 (main.1.sm_70.ptx:770) @%p4113 bra BB0_25;
GPGPU-Sim PTX:    immediate post dominator      @  PC=0xff0 (main.1.sm_70.ptx:786) shfl.sync.idx.b32 %r48|%p29, %r6156, %r6052, %r6081, %r6082;
GPGPU-Sim PTX: 14 (potential) branch divergence @  PC=0x1010 (main.1.sm_70.ptx:790) @%p4113 bra BB0_27;
GPGPU-Sim PTX:    immediate post dominator      @  PC=0x1078 (main.1.sm_70.ptx:806) add.s32 %r24736, %r24736, 1;
GPGPU-Sim PTX: 15 (potential) branch divergence @  PC=0x1088 (main.1.sm_70.ptx:808) @%p4117 bra BB0_19;
GPGPU-Sim PTX:    immediate post dominator      @  PC=0x1090 (main.1.sm_70.ptx:810) xor.b32 %r6219, %r6043, 2;
GPGPU-Sim PTX: 16 (potential) branch divergence @  PC=0x1118 (main.1.sm_70.ptx:829) @%p4119 bra BB0_31;
GPGPU-Sim PTX:    immediate post dominator      @  PC=0x1180 (main.1.sm_70.ptx:845) shfl.sync.idx.b32 %r63|%p37, %r6228, %r6051, %r6081, %r6082;
GPGPU-Sim PTX: 17 (potential) branch divergence @  PC=0x11a0 (main.1.sm_70.ptx:849) @%p4119 bra BB0_33;
GPGPU-Sim PTX:    immediate post dominator      @  PC=0x1208 (main.1.sm_70.ptx:865) shfl.sync.idx.b32 %r67|%p41, %r6228, %r6061, %r6081, %r6082;
GPGPU-Sim PTX: 18 (potential) branch divergence @  PC=0x1228 (main.1.sm_70.ptx:869) @%p4119 bra BB0_35;
GPGPU-Sim PTX:    immediate post dominator      @  PC=0x1290 (main.1.sm_70.ptx:885) shfl.sync.idx.b32 %r71|%p45, %r6228, %r6052, %r6081, %r6082;
GPGPU-Sim PTX: 19 (potential) branch divergence @  PC=0x12b0 (main.1.sm_70.ptx:889) @%p4119 bra BB0_37;
GPGPU-Sim PTX:    immediate post dominator      @  PC=0x1318 (main.1.sm_70.ptx:905) add.s32 %r24737, %r24737, 1;
GPGPU-Sim PTX: 20 (potential) branch divergence @  PC=0x1328 (main.1.sm_70.ptx:907) @%p4123 bra BB0_29;
GPGPU-Sim PTX:    immediate post dominator      @  PC=0x1330 (main.1.sm_70.ptx:909) xor.b32 %r6291, %r6043, 3;
GPGPU-Sim PTX: 21 (potential) branch divergence @  PC=0x13b8 (main.1.sm_70.ptx:928) @%p4125 bra BB0_41;
GPGPU-Sim PTX:    immediate post dominator      @  PC=0x1420 (main.1.sm_70.ptx:944) shfl.sync.idx.b32 %r86|%p53, %r6300, %r6051, %r6081, %r6082;
GPGPU-Sim PTX: 22 (potential) branch divergence @  PC=0x1440 (main.1.sm_70.ptx:948) @%p4125 bra BB0_43;
GPGPU-Sim PTX:    immediate post dominator      @  PC=0x14a8 (main.1.sm_70.ptx:964) shfl.sync.idx.b32 %r90|%p57, %r6300, %r6061, %r6081, %r6082;
GPGPU-Sim PTX: 23 (potential) branch divergence @  PC=0x14c8 (main.1.sm_70.ptx:968) @%p4125 bra BB0_45;
GPGPU-Sim PTX:    immediate post dominator      @  PC=0x1530 (main.1.sm_70.ptx:984) shfl.sync.idx.b32 %r94|%p61, %r6300, %r6052, %r6081, %r6082;
GPGPU-Sim PTX: 24 (potential) branch divergence @  PC=0x1550 (main.1.sm_70.ptx:988) @%p4125 bra BB0_47;
GPGPU-Sim PTX:    immediate post dominator      @  PC=0x15b8 (main.1.sm_70.ptx:1004) add.s32 %r24738, %r24738, 1;
GPGPU-Sim PTX: 25 (potential) branch divergence @  PC=0x15c8 (main.1.sm_70.ptx:1006) @%p4129 bra BB0_39;
GPGPU-Sim PTX:    immediate post dominator      @  PC=0x15d0 (main.1.sm_70.ptx:1008) xor.b32 %r6363, %r6043, 4;
GPGPU-Sim PTX: 26 (potential) branch divergence @  PC=0x1658 (main.1.sm_70.ptx:1027) @%p4131 bra BB0_51;
GPGPU-Sim PTX:    immediate post dominator      @  PC=0x16c0 (main.1.sm_70.ptx:1043) shfl.sync.idx.b32 %r109|%p69, %r6372, %r6051, %r6081, %r6082;
GPGPU-Sim PTX: 27 (potential) branch divergence @  PC=0x16e0 (main.1.sm_70.ptx:1047) @%p4131 bra BB0_53;
GPGPU-Sim PTX:    immediate post dominator      @  PC=0x1748 (main.1.sm_70.ptx:1063) shfl.sync.idx.b32 %r113|%p73, %r6372, %r6061, %r6081, %r6082;
GPGPU-Sim PTX: 28 (potential) branch divergence @  PC=0x1768 (main.1.sm_70.ptx:1067) @%p4131 bra BB0_55;
GPGPU-Sim PTX:    immediate post dominator      @  PC=0x17d0 (main.1.sm_70.ptx:1083) shfl.sync.idx.b32 %r117|%p77, %r6372, %r6052, %r6081, %r6082;
GPGPU-Sim PTX: 29 (potential) branch divergence @  PC=0x17f0 (main.1.sm_70.ptx:1087) @%p4131 bra BB0_57;
GPGPU-Sim PTX:    immediate post dominator      @  PC=0x1858 (main.1.sm_70.ptx:1103) add.s32 %r24739, %r24739, 1;
GPGPU-Sim PTX: 30 (potential) branch divergence @  PC=0x1868 (main.1.sm_70.ptx:1105) @%p4135 bra BB0_49;
GPGPU-Sim PTX:    immediate post dominator      @  PC=0x1870 (main.1.sm_70.ptx:1107) xor.b32 %r6435, %r6043, 5;
GPGPU-Sim PTX: 31 (potential) branch divergence @  PC=0x18f8 (main.1.sm_70.ptx:1126) @%p4137 bra BB0_61;
GPGPU-Sim PTX:    immediate post dominator      @  PC=0x1960 (main.1.sm_70.ptx:1142) shfl.sync.idx.b32 %r132|%p85, %r6444, %r6051, %r6081, %r6082;
GPGPU-Sim PTX: 32 (potential) branch divergence @  PC=0x1980 (main.1.sm_70.ptx:1146) @%p4137 bra BB0_63;
GPGPU-Sim PTX:    immediate post dominator      @  PC=0x19e8 (main.1.sm_70.ptx:1162) shfl.sync.idx.b32 %r136|%p89, %r6444, %r6061, %r6081, %r6082;
GPGPU-Sim PTX: 33 (potential) branch divergence @  PC=0x1a08 (main.1.sm_70.ptx:1166) @%p4137 bra BB0_65;
GPGPU-Sim PTX:    immediate post dominator      @  PC=0x1a70 (main.1.sm_70.ptx:1182) shfl.sync.idx.b32 %r140|%p93, %r6444, %r6052, %r6081, %r6082;
GPGPU-Sim PTX: 34 (potential) branch divergence @  PC=0x1a90 (main.1.sm_70.ptx:1186) @%p4137 bra BB0_67;
GPGPU-Sim PTX:    immediate post dominator      @  PC=0x1af8 (main.1.sm_70.ptx:1202) add.s32 %r24740, %r24740, 1;
GPGPU-Sim PTX: 35 (potential) branch divergence @  PC=0x1b08 (main.1.sm_70.ptx:1204) @%p4141 bra BB0_59;
GPGPU-Sim PTX:    immediate post dominator      @  PC=0x1b10 (main.1.sm_70.ptx:1206) xor.b32 %r6507, %r6043, 6;
GPGPU-Sim PTX: 36 (potential) branch divergence @  PC=0x1b98 (main.1.sm_70.ptx:1225) @%p4143 bra BB0_71;
GPGPU-Sim PTX:    immediate post dominator      @  PC=0x1c00 (main.1.sm_70.ptx:1241) shfl.sync.idx.b32 %r155|%p101, %r6516, %r6051, %r6081, %r6082;
GPGPU-Sim PTX: 37 (potential) branch divergence @  PC=0x1c20 (main.1.sm_70.ptx:1245) @%p4143 bra BB0_73;
GPGPU-Sim PTX:    immediate post dominator      @  PC=0x1c88 (main.1.sm_70.ptx:1261) shfl.sync.idx.b32 %r159|%p105, %r6516, %r6061, %r6081, %r6082;
GPGPU-Sim PTX: 38 (potential) branch divergence @  PC=0x1ca8 (main.1.sm_70.ptx:1265) @%p4143 bra BB0_75;
GPGPU-Sim PTX:    immediate post dominator      @  PC=0x1d10 (main.1.sm_70.ptx:1281) shfl.sync.idx.b32 %r163|%p109, %r6516, %r6052, %r6081, %r6082;
GPGPU-Sim PTX: 39 (potential) branch divergence @  PC=0x1d30 (main.1.sm_70.ptx:1285) @%p4143 bra BB0_77;
GPGPU-Sim PTX:    immediate post dominator      @  PC=0x1d98 (main.1.sm_70.ptx:1301) add.s32 %r24741, %r24741, 1;
GPGPU-Sim PTX: 40 (potential) branch divergence @  PC=0x1da8 (main.1.sm_70.ptx:1303) @%p4147 bra BB0_69;
GPGPU-Sim PTX:    immediate post dominator      @  PC=0x1db0 (main.1.sm_70.ptx:1305) xor.b32 %r6579, %r6043, 7;
GPGPU-Sim PTX: 41 (potential) branch divergence @  PC=0x1e38 (main.1.sm_70.ptx:1324) @%p4149 bra BB0_81;
GPGPU-Sim PTX:    immediate post dominator      @  PC=0x1ea0 (main.1.sm_70.ptx:1340) shfl.sync.idx.b32 %r178|%p117, %r6588, %r6051, %r6081, %r6082;
GPGPU-Sim PTX: 42 (potential) branch divergence @  PC=0x1ec0 (main.1.sm_70.ptx:1344) @%p4149 bra BB0_83;
GPGPU-Sim PTX:    immediate post dominator      @  PC=0x1f28 (main.1.sm_70.ptx:1360) shfl.sync.idx.b32 %r182|%p121, %r6588, %r6061, %r6081, %r6082;
GPGPU-Sim PTX: 43 (potential) branch divergence @  PC=0x1f48 (main.1.sm_70.ptx:1364) @%p4149 bra BB0_85;
GPGPU-Sim PTX:    immediate post dominator      @  PC=0x1fb0 (main.1.sm_70.ptx:1380) shfl.sync.idx.b32 %r186|%p125, %r6588, %r6052, %r6081, %r6082;
GPGPU-Sim PTX: 44 (potential) branch divergence @  PC=0x1fd0 (main.1.sm_70.ptx:1384) @%p4149 bra BB0_87;
GPGPU-Sim PTX:    immediate post dominator      @  PC=0x2038 (main.1.sm_70.ptx:1400) add.s32 %r24742, %r24742, 1;
GPGPU-Sim PTX: 45 (potential) branch divergence @  PC=0x2048 (main.1.sm_70.ptx:1402) @%p4153 bra BB0_79;
GPGPU-Sim PTX:    immediate post dominator      @  PC=0x2050 (main.1.sm_70.ptx:1404) xor.b32 %r6651, %r6043, 8;
GPGPU-Sim PTX: 46 (potential) branch divergence @  PC=0x20d8 (main.1.sm_70.ptx:1423) @%p4155 bra BB0_91;
GPGPU-Sim PTX:    immediate post dominator      @  PC=0x2140 (main.1.sm_70.ptx:1439) shfl.sync.idx.b32 %r201|%p133, %r6660, %r6051, %r6081, %r6082;
GPGPU-Sim PTX: 47 (potential) branch divergence @  PC=0x2160 (main.1.sm_70.ptx:1443) @%p4155 bra BB0_93;
GPGPU-Sim PTX:    immediate post dominator      @  PC=0x21c8 (main.1.sm_70.ptx:1459) shfl.sync.idx.b32 %r205|%p137, %r6660, %r6061, %r6081, %r6082;
GPGPU-Sim PTX: 48 (potential) branch divergence @  PC=0x21e8 (main.1.sm_70.ptx:1463) @%p4155 bra BB0_95;
GPGPU-Sim PTX:    immediate post dominator      @  PC=0x2250 (main.1.sm_70.ptx:1479) shfl.sync.idx.b32 %r209|%p141, %r6660, %r6052, %r6081, %r6082;
GPGPU-Sim PTX: 49 (potential) branch divergence @  PC=0x2270 (main.1.sm_70.ptx:1483) @%p4155 bra BB0_97;
GPGPU-Sim PTX:    immediate post dominator      @  PC=0x22d8 (main.1.sm_70.ptx:1499) add.s32 %r24743, %r24743, 1;
GPGPU-Sim PTX: 50 (potential) branch divergence @  PC=0x22e8 (main.1.sm_70.ptx:1501) @%p4159 bra BB0_89;
GPGPU-Sim PTX:    immediate post dominator      @  PC=0x22f0 (main.1.sm_70.ptx:1503) xor.b32 %r6723, %r6043, 9;
GPGPU-Sim PTX: 51 (potential) branch divergence @  PC=0x2378 (main.1.sm_70.ptx:1522) @%p4161 bra BB0_101;
GPGPU-Sim PTX:    immediate post dominator      @  PC=0x23e0 (main.1.sm_70.ptx:1538) shfl.sync.idx.b32 %r224|%p149, %r6732, %r6051, %r6081, %r6082;
GPGPU-Sim PTX: 52 (potential) branch divergence @  PC=0x2400 (main.1.sm_70.ptx:1542) @%p4161 bra BB0_103;
GPGPU-Sim PTX:    immediate post dominator      @  PC=0x2468 (main.1.sm_70.ptx:1558) shfl.sync.idx.b32 %r228|%p153, %r6732, %r6061, %r6081, %r6082;
GPGPU-Sim PTX: 53 (potential) branch divergence @  PC=0x2488 (main.1.sm_70.ptx:1562) @%p4161 bra BB0_105;
GPGPU-Sim PTX:    immediate post dominator      @  PC=0x24f0 (main.1.sm_70.ptx:1578) shfl.sync.idx.b32 %r232|%p157, %r6732, %r6052, %r6081, %r6082;
GPGPU-Sim PTX: 54 (potential) branch divergence @  PC=0x2510 (main.1.sm_70.ptx:1582) @%p4161 bra BB0_107;
GPGPU-Sim PTX:    immediate post dominator      @  PC=0x2578 (main.1.sm_70.ptx:1598) add.s32 %r24744, %r24744, 1;
GPGPU-Sim PTX: 55 (potential) branch divergence @  PC=0x2588 (main.1.sm_70.ptx:1600) @%p4165 bra BB0_99;
GPGPU-Sim PTX:    immediate post dominator      @  PC=0x2590 (main.1.sm_70.ptx:1602) xor.b32 %r6795, %r6043, 10;
GPGPU-Sim PTX: 56 (potential) branch divergence @  PC=0x2618 (main.1.sm_70.ptx:1621) @%p4167 bra BB0_111;
GPGPU-Sim PTX:    immediate post dominator      @  PC=0x2680 (main.1.sm_70.ptx:1637) shfl.sync.idx.b32 %r247|%p165, %r6804, %r6051, %r6081, %r6082;
GPGPU-Sim PTX: 57 (potential) branch divergence @  PC=0x26a0 (main.1.sm_70.ptx:1641) @%p4167 bra BB0_113;
GPGPU-Sim PTX:    immediate post dominator      @  PC=0x2708 (main.1.sm_70.ptx:1657) shfl.sync.idx.b32 %r251|%p169, %r6804, %r6061, %r6081, %r6082;
GPGPU-Sim PTX: 58 (potential) branch divergence @  PC=0x2728 (main.1.sm_70.ptx:1661) @%p4167 bra BB0_115;
GPGPU-Sim PTX:    immediate post dominator      @  PC=0x2790 (main.1.sm_70.ptx:1677) shfl.sync.idx.b32 %r255|%p173, %r6804, %r6052, %r6081, %r6082;
GPGPU-Sim PTX: 59 (potential) branch divergence @  PC=0x27b0 (main.1.sm_70.ptx:1681) @%p4167 bra BB0_117;
GPGPU-Sim PTX:    immediate post dominator      @  PC=0x2818 (main.1.sm_70.ptx:1697) add.s32 %r24745, %r24745, 1;
GPGPU-Sim PTX: 60 (potential) branch divergence @  PC=0x2828 (main.1.sm_70.ptx:1699) @%p4171 bra BB0_109;
GPGPU-Sim PTX:    immediate post dominator      @  PC=0x2830 (main.1.sm_70.ptx:1701) xor.b32 %r6867, %r6043, 11;
GPGPU-Sim PTX: 61 (potential) branch divergence @  PC=0x28b8 (main.1.sm_70.ptx:1720) @%p4173 bra BB0_121;
GPGPU-Sim PTX:    immediate post dominator      @  PC=0x2920 (main.1.sm_70.ptx:1736) shfl.sync.idx.b32 %r270|%p181, %r6876, %r6051, %r6081, %r6082;
GPGPU-Sim PTX: 62 (potential) branch divergence @  PC=0x2940 (main.1.sm_70.ptx:1740) @%p4173 bra BB0_123;
GPGPU-Sim PTX:    immediate post dominator      @  PC=0x29a8 (main.1.sm_70.ptx:1756) shfl.sync.idx.b32 %r274|%p185, %r6876, %r6061, %r6081, %r6082;
GPGPU-Sim PTX: 63 (potential) branch divergence @  PC=0x29c8 (main.1.sm_70.ptx:1760) @%p4173 bra BB0_125;
GPGPU-Sim PTX:    immediate post dominator      @  PC=0x2a30 (main.1.sm_70.ptx:1776) shfl.sync.idx.b32 %r278|%p189, %r6876, %r6052, %r6081, %r6082;
GPGPU-Sim PTX: 64 (potential) branch divergence @  PC=0x2a50 (main.1.sm_70.ptx:1780) @%p4173 bra BB0_127;
GPGPU-Sim PTX:    immediate post dominator      @  PC=0x2ab8 (main.1.sm_70.ptx:1796) add.s32 %r24746, %r24746, 1;
GPGPU-Sim PTX: 65 (potential) branch divergence @  PC=0x2ac8 (main.1.sm_70.ptx:1798) @%p4177 bra BB0_119;
GPGPU-Sim PTX:    immediate post dominator      @  PC=0x2ad0 (main.1.sm_70.ptx:1800) xor.b32 %r6939, %r6043, 12;
GPGPU-Sim PTX: 66 (potential) branch divergence @  PC=0x2b58 (main.1.sm_70.ptx:1819) @%p4179 bra BB0_131;
GPGPU-Sim PTX:    immediate post dominator      @  PC=0x2bc0 (main.1.sm_70.ptx:1835) shfl.sync.idx.b32 %r293|%p197, %r6948, %r6051, %r6081, %r6082;
GPGPU-Sim PTX: 67 (potential) branch divergence @  PC=0x2be0 (main.1.sm_70.ptx:1839) @%p4179 bra BB0_133;
GPGPU-Sim PTX:    immediate post dominator      @  PC=0x2c48 (main.1.sm_70.ptx:1855) shfl.sync.idx.b32 %r297|%p201, %r6948, %r6061, %r6081, %r6082;
GPGPU-Sim PTX: 68 (potential) branch divergence @  PC=0x2c68 (main.1.sm_70.ptx:1859) @%p4179 bra BB0_135;
GPGPU-Sim PTX:    immediate post dominator      @  PC=0x2cd0 (main.1.sm_70.ptx:1875) shfl.sync.idx.b32 %r301|%p205, %r6948, %r6052, %r6081, %r6082;
GPGPU-Sim PTX: 69 (potential) branch divergence @  PC=0x2cf0 (main.1.sm_70.ptx:1879) @%p4179 bra BB0_137;
GPGPU-Sim PTX:    immediate post dominator      @  PC=0x2d58 (main.1.sm_70.ptx:1895) add.s32 %r24747, %r24747, 1;
GPGPU-Sim PTX: 70 (potential) branch divergence @  PC=0x2d68 (main.1.sm_70.ptx:1897) @%p4183 bra BB0_129;
GPGPU-Sim PTX:    immediate post dominator      @  PC=0x2d70 (main.1.sm_70.ptx:1899) xor.b32 %r7011, %r6043, 13;
GPGPU-Sim PTX: 71 (potential) branch divergence @  PC=0x2df8 (main.1.sm_70.ptx:1918) @%p4185 bra BB0_141;
GPGPU-Sim PTX:    immediate post dominator      @  PC=0x2e60 (main.1.sm_70.ptx:1934) shfl.sync.idx.b32 %r316|%p213, %r7020, %r6051, %r6081, %r6082;
GPGPU-Sim PTX: 72 (potential) branch divergence @  PC=0x2e80 (main.1.sm_70.ptx:1938) @%p4185 bra BB0_143;
GPGPU-Sim PTX:    immediate post dominator      @  PC=0x2ee8 (main.1.sm_70.ptx:1954) shfl.sync.idx.b32 %r320|%p217, %r7020, %r6061, %r6081, %r6082;
GPGPU-Sim PTX: 73 (potential) branch divergence @  PC=0x2f08 (main.1.sm_70.ptx:1958) @%p4185 bra BB0_145;
GPGPU-Sim PTX:    immediate post dominator      @  PC=0x2f70 (main.1.sm_70.ptx:1974) shfl.sync.idx.b32 %r324|%p221, %r7020, %r6052, %r6081, %r6082;
GPGPU-Sim PTX: 74 (potential) branch divergence @  PC=0x2f90 (main.1.sm_70.ptx:1978) @%p4185 bra BB0_147;
GPGPU-Sim PTX:    immediate post dominator      @  PC=0x2ff8 (main.1.sm_70.ptx:1994) add.s32 %r24748, %r24748, 1;
GPGPU-Sim PTX: 75 (potential) branch divergence @  PC=0x3008 (main.1.sm_70.ptx:1996) @%p4189 bra BB0_139;
GPGPU-Sim PTX:    immediate post dominator      @  PC=0x3010 (main.1.sm_70.ptx:1998) xor.b32 %r7083, %r6043, 14;
GPGPU-Sim PTX: 76 (potential) branch divergence @  PC=0x3098 (main.1.sm_70.ptx:2017) @%p4191 bra BB0_151;
GPGPU-Sim PTX:    immediate post dominator      @  PC=0x3100 (main.1.sm_70.ptx:2033) shfl.sync.idx.b32 %r339|%p229, %r7092, %r6051, %r6081, %r6082;
GPGPU-Sim PTX: 77 (potential) branch divergence @  PC=0x3120 (main.1.sm_70.ptx:2037) @%p4191 bra BB0_153;
GPGPU-Sim PTX:    immediate post dominator      @  PC=0x3188 (main.1.sm_70.ptx:2053) shfl.sync.idx.b32 %r343|%p233, %r7092, %r6061, %r6081, %r6082;
GPGPU-Sim PTX: 78 (potential) branch divergence @  PC=0x31a8 (main.1.sm_70.ptx:2057) @%p4191 bra BB0_155;
GPGPU-Sim PTX:    immediate post dominator      @  PC=0x3210 (main.1.sm_70.ptx:2073) shfl.sync.idx.b32 %r347|%p237, %r7092, %r6052, %r6081, %r6082;
GPGPU-Sim PTX: 79 (potential) branch divergence @  PC=0x3230 (main.1.sm_70.ptx:2077) @%p4191 bra BB0_157;
GPGPU-Sim PTX:    immediate post dominator      @  PC=0x3298 (main.1.sm_70.ptx:2093) add.s32 %r24749, %r24749, 1;
GPGPU-Sim PTX: 80 (potential) branch divergence @  PC=0x32a8 (main.1.sm_70.ptx:2095) @%p4195 bra BB0_149;
GPGPU-Sim PTX:    immediate post dominator      @  PC=0x32b0 (main.1.sm_70.ptx:2097) xor.b32 %r7155, %r6043, 15;
GPGPU-Sim PTX: 81 (potential) branch divergence @  PC=0x3338 (main.1.sm_70.ptx:2116) @%p4197 bra BB0_161;
GPGPU-Sim PTX:    immediate post dominator      @  PC=0x33a0 (main.1.sm_70.ptx:2132) shfl.sync.idx.b32 %r362|%p245, %r7164, %r6051, %r6081, %r6082;
GPGPU-Sim PTX: 82 (potential) branch divergence @  PC=0x33c0 (main.1.sm_70.ptx:2136) @%p4197 bra BB0_163;
GPGPU-Sim PTX:    immediate post dominator      @  PC=0x3428 (main.1.sm_70.ptx:2152) shfl.sync.idx.b32 %r366|%p249, %r7164, %r6061, %r6081, %r6082;
GPGPU-Sim PTX: 83 (potential) branch divergence @  PC=0x3448 (main.1.sm_70.ptx:2156) @%p4197 bra BB0_165;
GPGPU-Sim PTX:    immediate post dominator      @  PC=0x34b0 (main.1.sm_70.ptx:2172) shfl.sync.idx.b32 %r370|%p253, %r7164, %r6052, %r6081, %r6082;
GPGPU-Sim PTX: 84 (potential) branch divergence @  PC=0x34d0 (main.1.sm_70.ptx:2176) @%p4197 bra BB0_167;
GPGPU-Sim PTX:    immediate post dominator      @  PC=0x3538 (main.1.sm_70.ptx:2192) add.s32 %r24750, %r24750, 1;
GPGPU-Sim PTX: 85 (potential) branch divergence @  PC=0x3548 (main.1.sm_70.ptx:2194) @%p4201 bra BB0_159;
GPGPU-Sim PTX:    immediate post dominator      @  PC=0x3550 (main.1.sm_70.ptx:2196) xor.b32 %r7227, %r6043, 16;
GPGPU-Sim PTX: 86 (potential) branch divergence @  PC=0x35d8 (main.1.sm_70.ptx:2215) @%p4203 bra BB0_171;
GPGPU-Sim PTX:    immediate post dominator      @  PC=0x3640 (main.1.sm_70.ptx:2231) shfl.sync.idx.b32 %r385|%p261, %r7236, %r6051, %r6081, %r6082;
GPGPU-Sim PTX: 87 (potential) branch divergence @  PC=0x3660 (main.1.sm_70.ptx:2235) @%p4203 bra BB0_173;
GPGPU-Sim PTX:    immediate post dominator      @  PC=0x36c8 (main.1.sm_70.ptx:2251) shfl.sync.idx.b32 %r389|%p265, %r7236, %r6061, %r6081, %r6082;
GPGPU-Sim PTX: 88 (potential) branch divergence @  PC=0x36e8 (main.1.sm_70.ptx:2255) @%p4203 bra BB0_175;
GPGPU-Sim PTX:    immediate post dominator      @  PC=0x3750 (main.1.sm_70.ptx:2271) shfl.sync.idx.b32 %r393|%p269, %r7236, %r6052, %r6081, %r6082;
GPGPU-Sim PTX: 89 (potential) branch divergence @  PC=0x3770 (main.1.sm_70.ptx:2275) @%p4203 bra BB0_177;
GPGPU-Sim PTX:    immediate post dominator      @  PC=0x37d8 (main.1.sm_70.ptx:2291) add.s32 %r24751, %r24751, 1;
GPGPU-Sim PTX: 90 (potential) branch divergence @  PC=0x37e8 (main.1.sm_70.ptx:2293) @%p4207 bra BB0_169;
GPGPU-Sim PTX:    immediate post dominator      @  PC=0x37f0 (main.1.sm_70.ptx:2295) xor.b32 %r7299, %r6043, 17;
GPGPU-Sim PTX: 91 (potential) branch divergence @  PC=0x3878 (main.1.sm_70.ptx:2314) @%p4209 bra BB0_181;
GPGPU-Sim PTX:    immediate post dominator      @  PC=0x38e0 (main.1.sm_70.ptx:2330) shfl.sync.idx.b32 %r408|%p277, %r7308, %r6051, %r6081, %r6082;
GPGPU-Sim PTX: 92 (potential) branch divergence @  PC=0x3900 (main.1.sm_70.ptx:2334) @%p4209 bra BB0_183;
GPGPU-Sim PTX:    immediate post dominator      @  PC=0x3968 (main.1.sm_70.ptx:2350) shfl.sync.idx.b32 %r412|%p281, %r7308, %r6061, %r6081, %r6082;
GPGPU-Sim PTX: 93 (potential) branch divergence @  PC=0x3988 (main.1.sm_70.ptx:2354) @%p4209 bra BB0_185;
GPGPU-Sim PTX:    immediate post dominator      @  PC=0x39f0 (main.1.sm_70.ptx:2370) shfl.sync.idx.b32 %r416|%p285, %r7308, %r6052, %r6081, %r6082;
GPGPU-Sim PTX: 94 (potential) branch divergence @  PC=0x3a10 (main.1.sm_70.ptx:2374) @%p4209 bra BB0_187;
GPGPU-Sim PTX:    immediate post dominator      @  PC=0x3a78 (main.1.sm_70.ptx:2390) add.s32 %r24752, %r24752, 1;
GPGPU-Sim PTX: 95 (potential) branch divergence @  PC=0x3a88 (main.1.sm_70.ptx:2392) @%p4213 bra BB0_179;
GPGPU-Sim PTX:    immediate post dominator      @  PC=0x3a90 (main.1.sm_70.ptx:2394) xor.b32 %r7371, %r6043, 18;
GPGPU-Sim PTX: 96 (potential) branch divergence @  PC=0x3b18 (main.1.sm_70.ptx:2413) @%p4215 bra BB0_191;
GPGPU-Sim PTX:    immediate post dominator      @  PC=0x3b80 (main.1.sm_70.ptx:2429) shfl.sync.idx.b32 %r431|%p293, %r7380, %r6051, %r6081, %r6082;
GPGPU-Sim PTX: 97 (potential) branch divergence @  PC=0x3ba0 (main.1.sm_70.ptx:2433) @%p4215 bra BB0_193;
GPGPU-Sim PTX:    immediate post dominator      @  PC=0x3c08 (main.1.sm_70.ptx:2449) shfl.sync.idx.b32 %r435|%p297, %r7380, %r6061, %r6081, %r6082;
GPGPU-Sim PTX: 98 (potential) branch divergence @  PC=0x3c28 (main.1.sm_70.ptx:2453) @%p4215 bra BB0_195;
GPGPU-Sim PTX:    immediate post dominator      @  PC=0x3c90 (main.1.sm_70.ptx:2469) shfl.sync.idx.b32 %r439|%p301, %r7380, %r6052, %r6081, %r6082;
GPGPU-Sim PTX: 99 (potential) branch divergence @  PC=0x3cb0 (main.1.sm_70.ptx:2473) @%p4215 bra BB0_197;
GPGPU-Sim PTX:    immediate post dominator      @  PC=0x3d18 (main.1.sm_70.ptx:2489) add.s32 %r24753, %r24753, 1;
GPGPU-Sim PTX: 100 (potential) branch divergence @  PC=0x3d28 (main.1.sm_70.ptx:2491) @%p4219 bra BB0_189;
GPGPU-Sim PTX:    immediate post dominator      @  PC=0x3d30 (main.1.sm_70.ptx:2493) xor.b32 %r7443, %r6043, 19;
GPGPU-Sim PTX: 101 (potential) branch divergence @  PC=0x3db8 (main.1.sm_70.ptx:2512) @%p4221 bra BB0_201;
GPGPU-Sim PTX:    immediate post dominator      @  PC=0x3e20 (main.1.sm_70.ptx:2528) shfl.sync.idx.b32 %r454|%p309, %r7452, %r6051, %r6081, %r6082;
GPGPU-Sim PTX: 102 (potential) branch divergence @  PC=0x3e40 (main.1.sm_70.ptx:2532) @%p4221 bra BB0_203;
GPGPU-Sim PTX:    immediate post dominator      @  PC=0x3ea8 (main.1.sm_70.ptx:2548) shfl.sync.idx.b32 %r458|%p313, %r7452, %r6061, %r6081, %r6082;
GPGPU-Sim PTX: 103 (potential) branch divergence @  PC=0x3ec8 (main.1.sm_70.ptx:2552) @%p4221 bra BB0_205;
GPGPU-Sim PTX:    immediate post dominator      @  PC=0x3f30 (main.1.sm_70.ptx:2568) shfl.sync.idx.b32 %r462|%p317, %r7452, %r6052, %r6081, %r6082;
GPGPU-Sim PTX: 104 (potential) branch divergence @  PC=0x3f50 (main.1.sm_70.ptx:2572) @%p4221 bra BB0_207;
GPGPU-Sim PTX:    immediate post dominator      @  PC=0x3fb8 (main.1.sm_70.ptx:2588) add.s32 %r24754, %r24754, 1;
GPGPU-Sim PTX: 105 (potential) branch divergence @  PC=0x3fc8 (main.1.sm_70.ptx:2590) @%p4225 bra BB0_199;
GPGPU-Sim PTX:    immediate post dominator      @  PC=0x3fd0 (main.1.sm_70.ptx:2592) xor.b32 %r7515, %r6043, 20;
GPGPU-Sim PTX: 106 (potential) branch divergence @  PC=0x4058 (main.1.sm_70.ptx:2611) @%p4227 bra BB0_211;
GPGPU-Sim PTX:    immediate post dominator      @  PC=0x40c0 (main.1.sm_70.ptx:2627) shfl.sync.idx.b32 %r477|%p325, %r7524, %r6051, %r6081, %r6082;
GPGPU-Sim PTX: 107 (potential) branch divergence @  PC=0x40e0 (main.1.sm_70.ptx:2631) @%p4227 bra BB0_213;
GPGPU-Sim PTX:    immediate post dominator      @  PC=0x4148 (main.1.sm_70.ptx:2647) shfl.sync.idx.b32 %r481|%p329, %r7524, %r6061, %r6081, %r6082;
GPGPU-Sim PTX: 108 (potential) branch divergence @  PC=0x4168 (main.1.sm_70.ptx:2651) @%p4227 bra BB0_215;
GPGPU-Sim PTX:    immediate post dominator      @  PC=0x41d0 (main.1.sm_70.ptx:2667) shfl.sync.idx.b32 %r485|%p333, %r7524, %r6052, %r6081, %r6082;
GPGPU-Sim PTX: 109 (potential) branch divergence @  PC=0x41f0 (main.1.sm_70.ptx:2671) @%p4227 bra BB0_217;
GPGPU-Sim PTX:    immediate post dominator      @  PC=0x4258 (main.1.sm_70.ptx:2687) add.s32 %r24755, %r24755, 1;
GPGPU-Sim PTX: 110 (potential) branch divergence @  PC=0x4268 (main.1.sm_70.ptx:2689) @%p4231 bra BB0_209;
GPGPU-Sim PTX:    immediate post dominator      @  PC=0x4270 (main.1.sm_70.ptx:2691) xor.b32 %r7587, %r6043, 21;
GPGPU-Sim PTX: 111 (potential) branch divergence @  PC=0x42f8 (main.1.sm_70.ptx:2710) @%p4233 bra BB0_221;
GPGPU-Sim PTX:    immediate post dominator      @  PC=0x4360 (main.1.sm_70.ptx:2726) shfl.sync.idx.b32 %r500|%p341, %r7596, %r6051, %r6081, %r6082;
GPGPU-Sim PTX: 112 (potential) branch divergence @  PC=0x4380 (main.1.sm_70.ptx:2730) @%p4233 bra BB0_223;
GPGPU-Sim PTX:    immediate post dominator      @  PC=0x43e8 (main.1.sm_70.ptx:2746) shfl.sync.idx.b32 %r504|%p345, %r7596, %r6061, %r6081, %r6082;
GPGPU-Sim PTX: 113 (potential) branch divergence @  PC=0x4408 (main.1.sm_70.ptx:2750) @%p4233 bra BB0_225;
GPGPU-Sim PTX:    immediate post dominator      @  PC=0x4470 (main.1.sm_70.ptx:2766) shfl.sync.idx.b32 %r508|%p349, %r7596, %r6052, %r6081, %r6082;
GPGPU-Sim PTX: 114 (potential) branch divergence @  PC=0x4490 (main.1.sm_70.ptx:2770) @%p4233 bra BB0_227;
GPGPU-Sim PTX:    immediate post dominator      @  PC=0x44f8 (main.1.sm_70.ptx:2786) add.s32 %r24756, %r24756, 1;
GPGPU-Sim PTX: 115 (potential) branch divergence @  PC=0x4508 (main.1.sm_70.ptx:2788) @%p4237 bra BB0_219;
GPGPU-Sim PTX:    immediate post dominator      @  PC=0x4510 (main.1.sm_70.ptx:2790) xor.b32 %r7659, %r6043, 22;
GPGPU-Sim PTX: 116 (potential) branch divergence @  PC=0x4598 (main.1.sm_70.ptx:2809) @%p4239 bra BB0_231;
GPGPU-Sim PTX:    immediate post dominator      @  PC=0x4600 (main.1.sm_70.ptx:2825) shfl.sync.idx.b32 %r523|%p357, %r7668, %r6051, %r6081, %r6082;
GPGPU-Sim PTX: 117 (potential) branch divergence @  PC=0x4620 (main.1.sm_70.ptx:2829) @%p4239 bra BB0_233;
GPGPU-Sim PTX:    immediate post dominator      @  PC=0x4688 (main.1.sm_70.ptx:2845) shfl.sync.idx.b32 %r527|%p361, %r7668, %r6061, %r6081, %r6082;
GPGPU-Sim PTX: 118 (potential) branch divergence @  PC=0x46a8 (main.1.sm_70.ptx:2849) @%p4239 bra BB0_235;
GPGPU-Sim PTX:    immediate post dominator      @  PC=0x4710 (main.1.sm_70.ptx:2865) shfl.sync.idx.b32 %r531|%p365, %r7668, %r6052, %r6081, %r6082;
GPGPU-Sim PTX: 119 (potential) branch divergence @  PC=0x4730 (main.1.sm_70.ptx:2869) @%p4239 bra BB0_237;
GPGPU-Sim PTX:    immediate post dominator      @  PC=0x4798 (main.1.sm_70.ptx:2885) add.s32 %r24757, %r24757, 1;
GPGPU-Sim PTX: 120 (potential) branch divergence @  PC=0x47a8 (main.1.sm_70.ptx:2887) @%p4243 bra BB0_229;
GPGPU-Sim PTX:    immediate post dominator      @  PC=0x47b0 (main.1.sm_70.ptx:2889) xor.b32 %r7731, %r6043, 23;
GPGPU-Sim PTX: 121 (potential) branch divergence @  PC=0x4838 (main.1.sm_70.ptx:2908) @%p4245 bra BB0_241;
GPGPU-Sim PTX:    immediate post dominator      @  PC=0x48a0 (main.1.sm_70.ptx:2924) shfl.sync.idx.b32 %r546|%p373, %r7740, %r6051, %r6081, %r6082;
GPGPU-Sim PTX: 122 (potential) branch divergence @  PC=0x48c0 (main.1.sm_70.ptx:2928) @%p4245 bra BB0_243;
GPGPU-Sim PTX:    immediate post dominator      @  PC=0x4928 (main.1.sm_70.ptx:2944) shfl.sync.idx.b32 %r550|%p377, %r7740, %r6061, %r6081, %r6082;
GPGPU-Sim PTX: 123 (potential) branch divergence @  PC=0x4948 (main.1.sm_70.ptx:2948) @%p4245 bra BB0_245;
GPGPU-Sim PTX:    immediate post dominator      @  PC=0x49b0 (main.1.sm_70.ptx:2964) shfl.sync.idx.b32 %r554|%p381, %r7740, %r6052, %r6081, %r6082;
GPGPU-Sim PTX: 124 (potential) branch divergence @  PC=0x49d0 (main.1.sm_70.ptx:2968) @%p4245 bra BB0_247;
GPGPU-Sim PTX:    immediate post dominator      @  PC=0x4a38 (main.1.sm_70.ptx:2984) add.s32 %r24758, %r24758, 1;
GPGPU-Sim PTX: 125 (potential) branch divergence @  PC=0x4a48 (main.1.sm_70.ptx:2986) @%p4249 bra BB0_239;
GPGPU-Sim PTX:    immediate post dominator      @  PC=0x4a50 (main.1.sm_70.ptx:2988) xor.b32 %r7803, %r6043, 24;
GPGPU-Sim PTX: 126 (potential) branch divergence @  PC=0x4ad8 (main.1.sm_70.ptx:3007) @%p4251 bra BB0_251;
GPGPU-Sim PTX:    immediate post dominator      @  PC=0x4b40 (main.1.sm_70.ptx:3023) shfl.sync.idx.b32 %r569|%p389, %r7812, %r6051, %r6081, %r6082;
GPGPU-Sim PTX: 127 (potential) branch divergence @  PC=0x4b60 (main.1.sm_70.ptx:3027) @%p4251 bra BB0_253;
GPGPU-Sim PTX:    immediate post dominator      @  PC=0x4bc8 (main.1.sm_70.ptx:3043) shfl.sync.idx.b32 %r573|%p393, %r7812, %r6061, %r6081, %r6082;
GPGPU-Sim PTX: 128 (potential) branch divergence @  PC=0x4be8 (main.1.sm_70.ptx:3047) @%p4251 bra BB0_255;
GPGPU-Sim PTX:    immediate post dominator      @  PC=0x4c50 (main.1.sm_70.ptx:3063) shfl.sync.idx.b32 %r577|%p397, %r7812, %r6052, %r6081, %r6082;
GPGPU-Sim PTX: 129 (potential) branch divergence @  PC=0x4c70 (main.1.sm_70.ptx:3067) @%p4251 bra BB0_257;
GPGPU-Sim PTX:    immediate post dominator      @  PC=0x4cd8 (main.1.sm_70.ptx:3083) add.s32 %r24759, %r24759, 1;
GPGPU-Sim PTX: 130 (potential) branch divergence @  PC=0x4ce8 (main.1.sm_70.ptx:3085) @%p4255 bra BB0_249;
GPGPU-Sim PTX:    immediate post dominator      @  PC=0x4cf0 (main.1.sm_70.ptx:3087) xor.b32 %r7875, %r6043, 25;
GPGPU-Sim PTX: 131 (potential) branch divergence @  PC=0x4d78 (main.1.sm_70.ptx:3106) @%p4257 bra BB0_261;
GPGPU-Sim PTX:    immediate post dominator      @  PC=0x4de0 (main.1.sm_70.ptx:3122) shfl.sync.idx.b32 %r592|%p405, %r7884, %r6051, %r6081, %r6082;
GPGPU-Sim PTX: 132 (potential) branch divergence @  PC=0x4e00 (main.1.sm_70.ptx:3126) @%p4257 bra BB0_263;
GPGPU-Sim PTX:    immediate post dominator      @  PC=0x4e68 (main.1.sm_70.ptx:3142) shfl.sync.idx.b32 %r596|%p409, %r7884, %r6061, %r6081, %r6082;
GPGPU-Sim PTX: 133 (potential) branch divergence @  PC=0x4e88 (main.1.sm_70.ptx:3146) @%p4257 bra BB0_265;
GPGPU-Sim PTX:    immediate post dominator      @  PC=0x4ef0 (main.1.sm_70.ptx:3162) shfl.sync.idx.b32 %r600|%p413, %r7884, %r6052, %r6081, %r6082;
GPGPU-Sim PTX: 134 (potential) branch divergence @  PC=0x4f10 (main.1.sm_70.ptx:3166) @%p4257 bra BB0_267;
GPGPU-Sim PTX:    immediate post dominator      @  PC=0x4f78 (main.1.sm_70.ptx:3182) add.s32 %r24760, %r24760, 1;
GPGPU-Sim PTX: 135 (potential) branch divergence @  PC=0x4f88 (main.1.sm_70.ptx:3184) @%p4261 bra BB0_259;
GPGPU-Sim PTX:    immediate post dominator      @  PC=0x4f90 (main.1.sm_70.ptx:3186) xor.b32 %r7947, %r6043, 26;
GPGPU-Sim PTX: 136 (potential) branch divergence @  PC=0x5018 (main.1.sm_70.ptx:3205) @%p4263 bra BB0_271;
GPGPU-Sim PTX:    immediate post dominator      @  PC=0x5080 (main.1.sm_70.ptx:3221) shfl.sync.idx.b32 %r615|%p421, %r7956, %r6051, %r6081, %r6082;
GPGPU-Sim PTX: 137 (potential) branch divergence @  PC=0x50a0 (main.1.sm_70.ptx:3225) @%p4263 bra BB0_273;
GPGPU-Sim PTX:    immediate post dominator      @  PC=0x5108 (main.1.sm_70.ptx:3241) shfl.sync.idx.b32 %r619|%p425, %r7956, %r6061, %r6081, %r6082;
GPGPU-Sim PTX: 138 (potential) branch divergence @  PC=0x5128 (main.1.sm_70.ptx:3245) @%p4263 bra BB0_275;
GPGPU-Sim PTX:    immediate post dominator      @  PC=0x5190 (main.1.sm_70.ptx:3261) shfl.sync.idx.b32 %r623|%p429, %r7956, %r6052, %r6081, %r6082;
GPGPU-Sim PTX: 139 (potential) branch divergence @  PC=0x51b0 (main.1.sm_70.ptx:3265) @%p4263 bra BB0_277;
GPGPU-Sim PTX:    immediate post dominator      @  PC=0x5218 (main.1.sm_70.ptx:3281) add.s32 %r24761, %r24761, 1;
GPGPU-Sim PTX: 140 (potential) branch divergence @  PC=0x5228 (main.1.sm_70.ptx:3283) @%p4267 bra BB0_269;
GPGPU-Sim PTX:    immediate post dominator      @  PC=0x5230 (main.1.sm_70.ptx:3285) xor.b32 %r8019, %r6043, 27;
GPGPU-Sim PTX: 141 (potential) branch divergence @  PC=0x52b8 (main.1.sm_70.ptx:3304) @%p4269 bra BB0_281;
GPGPU-Sim PTX:    immediate post dominator      @  PC=0x5320 (main.1.sm_70.ptx:3320) shfl.sync.idx.b32 %r638|%p437, %r8028, %r6051, %r6081, %r6082;
GPGPU-Sim PTX: 142 (potential) branch divergence @  PC=0x5340 (main.1.sm_70.ptx:3324) @%p4269 bra BB0_283;
GPGPU-Sim PTX:    immediate post dominator      @  PC=0x53a8 (main.1.sm_70.ptx:3340) shfl.sync.idx.b32 %r642|%p441, %r8028, %r6061, %r6081, %r6082;
GPGPU-Sim PTX: 143 (potential) branch divergence @  PC=0x53c8 (main.1.sm_70.ptx:3344) @%p4269 bra BB0_285;
GPGPU-Sim PTX:    immediate post dominator      @  PC=0x5430 (main.1.sm_70.ptx:3360) shfl.sync.idx.b32 %r646|%p445, %r8028, %r6052, %r6081, %r6082;
GPGPU-Sim PTX: 144 (potential) branch divergence @  PC=0x5450 (main.1.sm_70.ptx:3364) @%p4269 bra BB0_287;
GPGPU-Sim PTX:    immediate post dominator      @  PC=0x54b8 (main.1.sm_70.ptx:3380) add.s32 %r24762, %r24762, 1;
GPGPU-Sim PTX: 145 (potential) branch divergence @  PC=0x54c8 (main.1.sm_70.ptx:3382) @%p4273 bra BB0_279;
GPGPU-Sim PTX:    immediate post dominator      @  PC=0x54d0 (main.1.sm_70.ptx:3384) xor.b32 %r8091, %r6043, 28;
GPGPU-Sim PTX: 146 (potential) branch divergence @  PC=0x5558 (main.1.sm_70.ptx:3403) @%p4275 bra BB0_291;
GPGPU-Sim PTX:    immediate post dominator      @  PC=0x55c0 (main.1.sm_70.ptx:3419) shfl.sync.idx.b32 %r661|%p453, %r8100, %r6051, %r6081, %r6082;
GPGPU-Sim PTX: 147 (potential) branch divergence @  PC=0x55e0 (main.1.sm_70.ptx:3423) @%p4275 bra BB0_293;
GPGPU-Sim PTX:    immediate post dominator      @  PC=0x5648 (main.1.sm_70.ptx:3439) shfl.sync.idx.b32 %r665|%p457, %r8100, %r6061, %r6081, %r6082;
GPGPU-Sim PTX: 148 (potential) branch divergence @  PC=0x5668 (main.1.sm_70.ptx:3443) @%p4275 bra BB0_295;
GPGPU-Sim PTX:    immediate post dominator      @  PC=0x56d0 (main.1.sm_70.ptx:3459) shfl.sync.idx.b32 %r669|%p461, %r8100, %r6052, %r6081, %r6082;
GPGPU-Sim PTX: 149 (potential) branch divergence @  PC=0x56f0 (main.1.sm_70.ptx:3463) @%p4275 bra BB0_297;
GPGPU-Sim PTX:    immediate post dominator      @  PC=0x5758 (main.1.sm_70.ptx:3479) add.s32 %r24763, %r24763, 1;
GPGPU-Sim PTX: 150 (potential) branch divergence @  PC=0x5768 (main.1.sm_70.ptx:3481) @%p4279 bra BB0_289;
GPGPU-Sim PTX:    immediate post dominator      @  PC=0x5770 (main.1.sm_70.ptx:3483) xor.b32 %r8163, %r6043, 29;
GPGPU-Sim PTX: 151 (potential) branch divergence @  PC=0x57f8 (main.1.sm_70.ptx:3502) @%p4281 bra BB0_301;
GPGPU-Sim PTX:    immediate post dominator      @  PC=0x5860 (main.1.sm_70.ptx:3518) shfl.sync.idx.b32 %r684|%p469, %r8172, %r6051, %r6081, %r6082;
GPGPU-Sim PTX: 152 (potential) branch divergence @  PC=0x5880 (main.1.sm_70.ptx:3522) @%p4281 bra BB0_303;
GPGPU-Sim PTX:    immediate post dominator      @  PC=0x58e8 (main.1.sm_70.ptx:3538) shfl.sync.idx.b32 %r688|%p473, %r8172, %r6061, %r6081, %r6082;
GPGPU-Sim PTX: 153 (potential) branch divergence @  PC=0x5908 (main.1.sm_70.ptx:3542) @%p4281 bra BB0_305;
GPGPU-Sim PTX:    immediate post dominator      @  PC=0x5970 (main.1.sm_70.ptx:3558) shfl.sync.idx.b32 %r692|%p477, %r8172, %r6052, %r6081, %r6082;
GPGPU-Sim PTX: 154 (potential) branch divergence @  PC=0x5990 (main.1.sm_70.ptx:3562) @%p4281 bra BB0_307;
GPGPU-Sim PTX:    immediate post dominator      @  PC=0x59f8 (main.1.sm_70.ptx:3578) add.s32 %r24764, %r24764, 1;
GPGPU-Sim PTX: 155 (potential) branch divergence @  PC=0x5a08 (main.1.sm_70.ptx:3580) @%p4285 bra BB0_299;
GPGPU-Sim PTX:    immediate post dominator      @  PC=0x5a10 (main.1.sm_70.ptx:3582) xor.b32 %r8235, %r6043, 30;
GPGPU-Sim PTX: 156 (potential) branch divergence @  PC=0x5a98 (main.1.sm_70.ptx:3601) @%p4287 bra BB0_311;
GPGPU-Sim PTX:    immediate post dominator      @  PC=0x5b00 (main.1.sm_70.ptx:3617) shfl.sync.idx.b32 %r707|%p485, %r8244, %r6051, %r6081, %r6082;
GPGPU-Sim PTX: 157 (potential) branch divergence @  PC=0x5b20 (main.1.sm_70.ptx:3621) @%p4287 bra BB0_313;
GPGPU-Sim PTX:    immediate post dominator      @  PC=0x5b88 (main.1.sm_70.ptx:3637) shfl.sync.idx.b32 %r711|%p489, %r8244, %r6061, %r6081, %r6082;
GPGPU-Sim PTX: 158 (potential) branch divergence @  PC=0x5ba8 (main.1.sm_70.ptx:3641) @%p4287 bra BB0_315;
GPGPU-Sim PTX:    immediate post dominator      @  PC=0x5c10 (main.1.sm_70.ptx:3657) shfl.sync.idx.b32 %r715|%p493, %r8244, %r6052, %r6081, %r6082;
GPGPU-Sim PTX: 159 (potential) branch divergence @  PC=0x5c30 (main.1.sm_70.ptx:3661) @%p4287 bra BB0_317;
GPGPU-Sim PTX:    immediate post dominator      @  PC=0x5c98 (main.1.sm_70.ptx:3677) add.s32 %r24765, %r24765, 1;
GPGPU-Sim PTX: 160 (potential) branch divergence @  PC=0x5ca8 (main.1.sm_70.ptx:3679) @%p4291 bra BB0_309;
GPGPU-Sim PTX:    immediate post dominator      @  PC=0x5cb0 (main.1.sm_70.ptx:3681) xor.b32 %r8307, %r6043, 31;
GPGPU-Sim PTX: 161 (potential) branch divergence @  PC=0x5d38 (main.1.sm_70.ptx:3700) @%p4293 bra BB0_321;
GPGPU-Sim PTX:    immediate post dominator      @  PC=0x5da0 (main.1.sm_70.ptx:3716) shfl.sync.idx.b32 %r730|%p501, %r8316, %r6051, %r6081, %r6082;
GPGPU-Sim PTX: 162 (potential) branch divergence @  PC=0x5dc0 (main.1.sm_70.ptx:3720) @%p4293 bra BB0_323;
GPGPU-Sim PTX:    immediate post dominator      @  PC=0x5e28 (main.1.sm_70.ptx:3736) shfl.sync.idx.b32 %r734|%p505, %r8316, %r6061, %r6081, %r6082;
GPGPU-Sim PTX: 163 (potential) branch divergence @  PC=0x5e48 (main.1.sm_70.ptx:3740) @%p4293 bra BB0_325;
GPGPU-Sim PTX:    immediate post dominator      @  PC=0x5eb0 (main.1.sm_70.ptx:3756) shfl.sync.idx.b32 %r738|%p509, %r8316, %r6052, %r6081, %r6082;
GPGPU-Sim PTX: 164 (potential) branch divergence @  PC=0x5ed0 (main.1.sm_70.ptx:3760) @%p4293 bra BB0_327;
GPGPU-Sim PTX:    immediate post dominator      @  PC=0x5f38 (main.1.sm_70.ptx:3776) add.s32 %r24766, %r24766, 1;
GPGPU-Sim PTX: 165 (potential) branch divergence @  PC=0x5f48 (main.1.sm_70.ptx:3778) @%p4297 bra BB0_319;
GPGPU-Sim PTX:    immediate post dominator      @  PC=0x5f50 (main.1.sm_70.ptx:3780) xor.b32 %r8379, %r6043, 32;
GPGPU-Sim PTX: 166 (potential) branch divergence @  PC=0x5fd8 (main.1.sm_70.ptx:3799) @%p4299 bra BB0_331;
GPGPU-Sim PTX:    immediate post dominator      @  PC=0x6040 (main.1.sm_70.ptx:3815) shfl.sync.idx.b32 %r753|%p517, %r8388, %r6051, %r6081, %r6082;
GPGPU-Sim PTX: 167 (potential) branch divergence @  PC=0x6060 (main.1.sm_70.ptx:3819) @%p4299 bra BB0_333;
GPGPU-Sim PTX:    immediate post dominator      @  PC=0x60c8 (main.1.sm_70.ptx:3835) shfl.sync.idx.b32 %r757|%p521, %r8388, %r6061, %r6081, %r6082;
GPGPU-Sim PTX: 168 (potential) branch divergence @  PC=0x60e8 (main.1.sm_70.ptx:3839) @%p4299 bra BB0_335;
GPGPU-Sim PTX:    immediate post dominator      @  PC=0x6150 (main.1.sm_70.ptx:3855) shfl.sync.idx.b32 %r761|%p525, %r8388, %r6052, %r6081, %r6082;
GPGPU-Sim PTX: 169 (potential) branch divergence @  PC=0x6170 (main.1.sm_70.ptx:3859) @%p4299 bra BB0_337;
GPGPU-Sim PTX:    immediate post dominator      @  PC=0x61d8 (main.1.sm_70.ptx:3875) add.s32 %r24767, %r24767, 1;
GPGPU-Sim PTX: 170 (potential) branch divergence @  PC=0x61e8 (main.1.sm_70.ptx:3877) @%p4303 bra BB0_329;
GPGPU-Sim PTX:    immediate post dominator      @  PC=0x61f0 (main.1.sm_70.ptx:3879) xor.b32 %r8451, %r6043, 33;
GPGPU-Sim PTX: 171 (potential) branch divergence @  PC=0x6278 (main.1.sm_70.ptx:3898) @%p4305 bra BB0_341;
GPGPU-Sim PTX:    immediate post dominator      @  PC=0x62e0 (main.1.sm_70.ptx:3914) shfl.sync.idx.b32 %r776|%p533, %r8460, %r6051, %r6081, %r6082;
GPGPU-Sim PTX: 172 (potential) branch divergence @  PC=0x6300 (main.1.sm_70.ptx:3918) @%p4305 bra BB0_343;
GPGPU-Sim PTX:    immediate post dominator      @  PC=0x6368 (main.1.sm_70.ptx:3934) shfl.sync.idx.b32 %r780|%p537, %r8460, %r6061, %r6081, %r6082;
GPGPU-Sim PTX: 173 (potential) branch divergence @  PC=0x6388 (main.1.sm_70.ptx:3938) @%p4305 bra BB0_345;
GPGPU-Sim PTX:    immediate post dominator      @  PC=0x63f0 (main.1.sm_70.ptx:3954) shfl.sync.idx.b32 %r784|%p541, %r8460, %r6052, %r6081, %r6082;
GPGPU-Sim PTX: 174 (potential) branch divergence @  PC=0x6410 (main.1.sm_70.ptx:3958) @%p4305 bra BB0_347;
GPGPU-Sim PTX:    immediate post dominator      @  PC=0x6478 (main.1.sm_70.ptx:3974) add.s32 %r24768, %r24768, 1;
GPGPU-Sim PTX: 175 (potential) branch divergence @  PC=0x6488 (main.1.sm_70.ptx:3976) @%p4309 bra BB0_339;
GPGPU-Sim PTX:    immediate post dominator      @  PC=0x6490 (main.1.sm_70.ptx:3978) xor.b32 %r8523, %r6043, 34;
GPGPU-Sim PTX: 176 (potential) branch divergence @  PC=0x6518 (main.1.sm_70.ptx:3997) @%p4311 bra BB0_351;
GPGPU-Sim PTX:    immediate post dominator      @  PC=0x6580 (main.1.sm_70.ptx:4013) shfl.sync.idx.b32 %r799|%p549, %r8532, %r6051, %r6081, %r6082;
GPGPU-Sim PTX: 177 (potential) branch divergence @  PC=0x65a0 (main.1.sm_70.ptx:4017) @%p4311 bra BB0_353;
GPGPU-Sim PTX:    immediate post dominator      @  PC=0x6608 (main.1.sm_70.ptx:4033) shfl.sync.idx.b32 %r803|%p553, %r8532, %r6061, %r6081, %r6082;
GPGPU-Sim PTX: 178 (potential) branch divergence @  PC=0x6628 (main.1.sm_70.ptx:4037) @%p4311 bra BB0_355;
GPGPU-Sim PTX:    immediate post dominator      @  PC=0x6690 (main.1.sm_70.ptx:4053) shfl.sync.idx.b32 %r807|%p557, %r8532, %r6052, %r6081, %r6082;
GPGPU-Sim PTX: 179 (potential) branch divergence @  PC=0x66b0 (main.1.sm_70.ptx:4057) @%p4311 bra BB0_357;
GPGPU-Sim PTX:    immediate post dominator      @  PC=0x6718 (main.1.sm_70.ptx:4073) add.s32 %r24769, %r24769, 1;
GPGPU-Sim PTX: 180 (potential) branch divergence @  PC=0x6728 (main.1.sm_70.ptx:4075) @%p4315 bra BB0_349;
GPGPU-Sim PTX:    immediate post dominator      @  PC=0x6730 (main.1.sm_70.ptx:4077) xor.b32 %r8595, %r6043, 35;
GPGPU-Sim PTX: 181 (potential) branch divergence @  PC=0x67b8 (main.1.sm_70.ptx:4096) @%p4317 bra BB0_361;
GPGPU-Sim PTX:    immediate post dominator      @  PC=0x6820 (main.1.sm_70.ptx:4112) shfl.sync.idx.b32 %r822|%p565, %r8604, %r6051, %r6081, %r6082;
GPGPU-Sim PTX: 182 (potential) branch divergence @  PC=0x6840 (main.1.sm_70.ptx:4116) @%p4317 bra BB0_363;
GPGPU-Sim PTX:    immediate post dominator      @  PC=0x68a8 (main.1.sm_70.ptx:4132) shfl.sync.idx.b32 %r826|%p569, %r8604, %r6061, %r6081, %r6082;
GPGPU-Sim PTX: 183 (potential) branch divergence @  PC=0x68c8 (main.1.sm_70.ptx:4136) @%p4317 bra BB0_365;
GPGPU-Sim PTX:    immediate post dominator      @  PC=0x6930 (main.1.sm_70.ptx:4152) shfl.sync.idx.b32 %r830|%p573, %r8604, %r6052, %r6081, %r6082;
GPGPU-Sim PTX: 184 (potential) branch divergence @  PC=0x6950 (main.1.sm_70.ptx:4156) @%p4317 bra BB0_367;
GPGPU-Sim PTX:    immediate post dominator      @  PC=0x69b8 (main.1.sm_70.ptx:4172) add.s32 %r24770, %r24770, 1;
GPGPU-Sim PTX: 185 (potential) branch divergence @  PC=0x69c8 (main.1.sm_70.ptx:4174) @%p4321 bra BB0_359;
GPGPU-Sim PTX:    immediate post dominator      @  PC=0x69d0 (main.1.sm_70.ptx:4176) xor.b32 %r8667, %r6043, 36;
GPGPU-Sim PTX: 186 (potential) branch divergence @  PC=0x6a58 (main.1.sm_70.ptx:4195) @%p4323 bra BB0_371;
GPGPU-Sim PTX:    immediate post dominator      @  PC=0x6ac0 (main.1.sm_70.ptx:4211) shfl.sync.idx.b32 %r845|%p581, %r8676, %r6051, %r6081, %r6082;
GPGPU-Sim PTX: 187 (potential) branch divergence @  PC=0x6ae0 (main.1.sm_70.ptx:4215) @%p4323 bra BB0_373;
GPGPU-Sim PTX:    immediate post dominator      @  PC=0x6b48 (main.1.sm_70.ptx:4231) shfl.sync.idx.b32 %r849|%p585, %r8676, %r6061, %r6081, %r6082;
GPGPU-Sim PTX: 188 (potential) branch divergence @  PC=0x6b68 (main.1.sm_70.ptx:4235) @%p4323 bra BB0_375;
GPGPU-Sim PTX:    immediate post dominator      @  PC=0x6bd0 (main.1.sm_70.ptx:4251) shfl.sync.idx.b32 %r853|%p589, %r8676, %r6052, %r6081, %r6082;
GPGPU-Sim PTX: 189 (potential) branch divergence @  PC=0x6bf0 (main.1.sm_70.ptx:4255) @%p4323 bra BB0_377;
GPGPU-Sim PTX:    immediate post dominator      @  PC=0x6c58 (main.1.sm_70.ptx:4271) add.s32 %r24771, %r24771, 1;
GPGPU-Sim PTX: 190 (potential) branch divergence @  PC=0x6c68 (main.1.sm_70.ptx:4273) @%p4327 bra BB0_369;
GPGPU-Sim PTX:    immediate post dominator      @  PC=0x6c70 (main.1.sm_70.ptx:4275) xor.b32 %r8739, %r6043, 37;
GPGPU-Sim PTX: 191 (potential) branch divergence @  PC=0x6cf8 (main.1.sm_70.ptx:4294) @%p4329 bra BB0_381;
GPGPU-Sim PTX:    immediate post dominator      @  PC=0x6d60 (main.1.sm_70.ptx:4310) shfl.sync.idx.b32 %r868|%p597, %r8748, %r6051, %r6081, %r6082;
GPGPU-Sim PTX: 192 (potential) branch divergence @  PC=0x6d80 (main.1.sm_70.ptx:4314) @%p4329 bra BB0_383;
GPGPU-Sim PTX:    immediate post dominator      @  PC=0x6de8 (main.1.sm_70.ptx:4330) shfl.sync.idx.b32 %r872|%p601, %r8748, %r6061, %r6081, %r6082;
GPGPU-Sim PTX: 193 (potential) branch divergence @  PC=0x6e08 (main.1.sm_70.ptx:4334) @%p4329 bra BB0_385;
GPGPU-Sim PTX:    immediate post dominator      @  PC=0x6e70 (main.1.sm_70.ptx:4350) shfl.sync.idx.b32 %r876|%p605, %r8748, %r6052, %r6081, %r6082;
GPGPU-Sim PTX: 194 (potential) branch divergence @  PC=0x6e90 (main.1.sm_70.ptx:4354) @%p4329 bra BB0_387;
GPGPU-Sim PTX:    immediate post dominator      @  PC=0x6ef8 (main.1.sm_70.ptx:4370) add.s32 %r24772, %r24772, 1;
GPGPU-Sim PTX: 195 (potential) branch divergence @  PC=0x6f08 (main.1.sm_70.ptx:4372) @%p4333 bra BB0_379;
GPGPU-Sim PTX:    immediate post dominator      @  PC=0x6f10 (main.1.sm_70.ptx:4374) xor.b32 %r8811, %r6043, 38;
GPGPU-Sim PTX: 196 (potential) branch divergence @  PC=0x6f98 (main.1.sm_70.ptx:4393) @%p4335 bra BB0_391;
GPGPU-Sim PTX:    immediate post dominator      @  PC=0x7000 (main.1.sm_70.ptx:4409) shfl.sync.idx.b32 %r891|%p613, %r8820, %r6051, %r6081, %r6082;
GPGPU-Sim PTX: 197 (potential) branch divergence @  PC=0x7020 (main.1.sm_70.ptx:4413) @%p4335 bra BB0_393;
GPGPU-Sim PTX:    immediate post dominator      @  PC=0x7088 (main.1.sm_70.ptx:4429) shfl.sync.idx.b32 %r895|%p617, %r8820, %r6061, %r6081, %r6082;
GPGPU-Sim PTX: 198 (potential) branch divergence @  PC=0x70a8 (main.1.sm_70.ptx:4433) @%p4335 bra BB0_395;
GPGPU-Sim PTX:    immediate post dominator      @  PC=0x7110 (main.1.sm_70.ptx:4449) shfl.sync.idx.b32 %r899|%p621, %r8820, %r6052, %r6081, %r6082;
GPGPU-Sim PTX: 199 (potential) branch divergence @  PC=0x7130 (main.1.sm_70.ptx:4453) @%p4335 bra BB0_397;
GPGPU-Sim PTX:    immediate post dominator      @  PC=0x7198 (main.1.sm_70.ptx:4469) add.s32 %r24773, %r24773, 1;
GPGPU-Sim PTX: 200 (potential) branch divergence @  PC=0x71a8 (main.1.sm_70.ptx:4471) @%p4339 bra BB0_389;
GPGPU-Sim PTX:    immediate post dominator      @  PC=0x71b0 (main.1.sm_70.ptx:4473) xor.b32 %r8883, %r6043, 39;
GPGPU-Sim PTX: 201 (potential) branch divergence @  PC=0x7238 (main.1.sm_70.ptx:4492) @%p4341 bra BB0_401;
GPGPU-Sim PTX:    immediate post dominator      @  PC=0x72a0 (main.1.sm_70.ptx:4508) shfl.sync.idx.b32 %r914|%p629, %r8892, %r6051, %r6081, %r6082;
GPGPU-Sim PTX: 202 (potential) branch divergence @  PC=0x72c0 (main.1.sm_70.ptx:4512) @%p4341 bra BB0_403;
GPGPU-Sim PTX:    immediate post dominator      @  PC=0x7328 (main.1.sm_70.ptx:4528) shfl.sync.idx.b32 %r918|%p633, %r8892, %r6061, %r6081, %r6082;
GPGPU-Sim PTX: 203 (potential) branch divergence @  PC=0x7348 (main.1.sm_70.ptx:4532) @%p4341 bra BB0_405;
GPGPU-Sim PTX:    immediate post dominator      @  PC=0x73b0 (main.1.sm_70.ptx:4548) shfl.sync.idx.b32 %r922|%p637, %r8892, %r6052, %r6081, %r6082;
GPGPU-Sim PTX: 204 (potential) branch divergence @  PC=0x73d0 (main.1.sm_70.ptx:4552) @%p4341 bra BB0_407;
GPGPU-Sim PTX:    immediate post dominator      @  PC=0x7438 (main.1.sm_70.ptx:4568) add.s32 %r24774, %r24774, 1;
GPGPU-Sim PTX: 205 (potential) branch divergence @  PC=0x7448 (main.1.sm_70.ptx:4570) @%p4345 bra BB0_399;
GPGPU-Sim PTX:    immediate post dominator      @  PC=0x7450 (main.1.sm_70.ptx:4572) xor.b32 %r8955, %r6043, 40;
GPGPU-Sim PTX: 206 (potential) branch divergence @  PC=0x74d8 (main.1.sm_70.ptx:4591) @%p4347 bra BB0_411;
GPGPU-Sim PTX:    immediate post dominator      @  PC=0x7540 (main.1.sm_70.ptx:4607) shfl.sync.idx.b32 %r937|%p645, %r8964, %r6051, %r6081, %r6082;
GPGPU-Sim PTX: 207 (potential) branch divergence @  PC=0x7560 (main.1.sm_70.ptx:4611) @%p4347 bra BB0_413;
GPGPU-Sim PTX:    immediate post dominator      @  PC=0x75c8 (main.1.sm_70.ptx:4627) shfl.sync.idx.b32 %r941|%p649, %r8964, %r6061, %r6081, %r6082;
GPGPU-Sim PTX: 208 (potential) branch divergence @  PC=0x75e8 (main.1.sm_70.ptx:4631) @%p4347 bra BB0_415;
GPGPU-Sim PTX:    immediate post dominator      @  PC=0x7650 (main.1.sm_70.ptx:4647) shfl.sync.idx.b32 %r945|%p653, %r8964, %r6052, %r6081, %r6082;
GPGPU-Sim PTX: 209 (potential) branch divergence @  PC=0x7670 (main.1.sm_70.ptx:4651) @%p4347 bra BB0_417;
GPGPU-Sim PTX:    immediate post dominator      @  PC=0x76d8 (main.1.sm_70.ptx:4667) add.s32 %r24775, %r24775, 1;
GPGPU-Sim PTX: 210 (potential) branch divergence @  PC=0x76e8 (main.1.sm_70.ptx:4669) @%p4351 bra BB0_409;
GPGPU-Sim PTX:    immediate post dominator      @  PC=0x76f0 (main.1.sm_70.ptx:4671) xor.b32 %r9027, %r6043, 41;
GPGPU-Sim PTX: 211 (potential) branch divergence @  PC=0x7778 (main.1.sm_70.ptx:4690) @%p4353 bra BB0_421;
GPGPU-Sim PTX:    immediate post dominator      @  PC=0x77e0 (main.1.sm_70.ptx:4706) shfl.sync.idx.b32 %r960|%p661, %r9036, %r6051, %r6081, %r6082;
GPGPU-Sim PTX: 212 (potential) branch divergence @  PC=0x7800 (main.1.sm_70.ptx:4710) @%p4353 bra BB0_423;
GPGPU-Sim PTX:    immediate post dominator      @  PC=0x7868 (main.1.sm_70.ptx:4726) shfl.sync.idx.b32 %r964|%p665, %r9036, %r6061, %r6081, %r6082;
GPGPU-Sim PTX: 213 (potential) branch divergence @  PC=0x7888 (main.1.sm_70.ptx:4730) @%p4353 bra BB0_425;
GPGPU-Sim PTX:    immediate post dominator      @  PC=0x78f0 (main.1.sm_70.ptx:4746) shfl.sync.idx.b32 %r968|%p669, %r9036, %r6052, %r6081, %r6082;
GPGPU-Sim PTX: 214 (potential) branch divergence @  PC=0x7910 (main.1.sm_70.ptx:4750) @%p4353 bra BB0_427;
GPGPU-Sim PTX:    immediate post dominator      @  PC=0x7978 (main.1.sm_70.ptx:4766) add.s32 %r24776, %r24776, 1;
GPGPU-Sim PTX: 215 (potential) branch divergence @  PC=0x7988 (main.1.sm_70.ptx:4768) @%p4357 bra BB0_419;
GPGPU-Sim PTX:    immediate post dominator      @  PC=0x7990 (main.1.sm_70.ptx:4770) xor.b32 %r9099, %r6043, 42;
GPGPU-Sim PTX: 216 (potential) branch divergence @  PC=0x7a18 (main.1.sm_70.ptx:4789) @%p4359 bra BB0_431;
GPGPU-Sim PTX:    immediate post dominator      @  PC=0x7a80 (main.1.sm_70.ptx:4805) shfl.sync.idx.b32 %r983|%p677, %r9108, %r6051, %r6081, %r6082;
GPGPU-Sim PTX: 217 (potential) branch divergence @  PC=0x7aa0 (main.1.sm_70.ptx:4809) @%p4359 bra BB0_433;
[...]
bk0: 64a 3061815i bk1: 64a 3061813i bk2: 64a 3061815i bk3: 64a 3061813i bk4: 64a 3061815i bk5: 64a 3061813i bk6: 64a 3061815i bk7: 64a 3061813i bk8: 32a 3061844i bk9: 32a 3061843i bk10: 0a 3061885i bk11: 0a 3061885i bk12: 0a 3061885i bk13: 0a 3061885i bk14: 0a 3061885i bk15: 0a 3061885i 

------------------------------------------------------------------------

Row_Buffer_Locality = 0.982639
Row_Buffer_Locality_read = 0.982639
Row_Buffer_Locality_write = -nan
Bank_Level_Parallism = 1.000000
Bank_Level_Parallism_Col = 1.000000
Bank_Level_Parallism_Ready = 1.000000
write_to_read_ratio_blp_rw_average = 0.000000
GrpLevelPara = 1.000000 

BW Util details:
bwutil = 0.000188 
total_CMD = 3061885 
util_bw = 576 
Wasted_Col = 651 
Wasted_Row = 0 
Idle = 3060658 

BW Util Bottlenecks: 
RCDc_limit = 120 
RCDWRc_limit = 0 
WTRc_limit = 0 
RTWc_limit = 0 
CCDLc_limit = 531 
rwq = 0 
CCDLc_limit_alone = 531 
WTRc_limit_alone = 0 
RTWc_limit_alone = 0 

Commands details: 
total_CMD = 3061885 
n_nop = 3061299 
Read = 576 
Write = 0 
L2_Alloc = 0 
L2_WB = 0 
n_act = 10 
n_pre = 0 
n_ref = 0 
n_req = 576 
total_req = 576 

Dual Bus Interface Util: 
issued_total_row = 10 
issued_total_col = 576 
Row_Bus_Util =  0.000003 
CoL_Bus_Util = 0.000188 
Either_Row_CoL_Bus_Util = 0.000191 
Issued_on_Two_Bus_Simul_Util = 0.000000 
issued_two_Eff = 0.000000 
queue_avg = 0.001626 


dram_util_bins: 0 0 0 0 0 0 0 0 0 0
dram_eff_bins: 0 0 0 0 0 0 0 0 0 0
mrqq: max=13 avg=0.00162645
Memory Partition 29: 
Cache L2_bank_058:
MSHR contents

Cache L2_bank_059:
MSHR contents

In Dram Latency Queue (total = 0): 
DRAM[29]: 16 bks, busW=16 BL=2 CL=12, tRRD=3 tCCD=1, tRCD=12 tRAS=28 tRP=12 tRC=40
n_cmd=3061885 n_nop=3061299 n_act=10 n_pre=0 n_ref_event=0 n_req=576 n_rd=576 n_rd_L2_A=0 n_write=0 n_wr_bk=0 bw_util=0.0001881
n_activity=1712 dram_eff=0.3364
bk0: 64a 3061816i bk1: 64a 3061813i bk2: 64a 3061816i bk3: 64a 3061813i bk4: 64a 3061816i bk5: 64a 3061813i bk6: 64a 3061816i bk7: 64a 3061813i bk8: 32a 3061844i bk9: 32a 3061843i bk10: 0a 3061885i bk11: 0a 3061885i bk12: 0a 3061885i bk13: 0a 3061885i bk14: 0a 3061885i bk15: 0a 3061885i 

------------------------------------------------------------------------

Row_Buffer_Locality = 0.982639
Row_Buffer_Locality_read = 0.982639
Row_Buffer_Locality_write = -nan
Bank_Level_Parallism = 1.000000
Bank_Level_Parallism_Col = 1.000000
Bank_Level_Parallism_Ready = 1.000000
write_to_read_ratio_blp_rw_average = 0.000000
GrpLevelPara = 1.000000 

BW Util details:
bwutil = 0.000188 
total_CMD = 3061885 
util_bw = 576 
Wasted_Col = 647 
Wasted_Row = 0 
Idle = 3060662 

BW Util Bottlenecks: 
RCDc_limit = 120 
RCDWRc_limit = 0 
WTRc_limit = 0 
RTWc_limit = 0 
CCDLc_limit = 527 
rwq = 0 
CCDLc_limit_alone = 527 
WTRc_limit_alone = 0 
RTWc_limit_alone = 0 

Commands details: 
total_CMD = 3061885 
n_nop = 3061299 
Read = 576 
Write = 0 
L2_Alloc = 0 
L2_WB = 0 
n_act = 10 
n_pre = 0 
n_ref = 0 
n_req = 576 
total_req = 576 

Dual Bus Interface Util: 
issued_total_row = 10 
issued_total_col = 576 
Row_Bus_Util =  0.000003 
CoL_Bus_Util = 0.000188 
Either_Row_CoL_Bus_Util = 0.000191 
Issued_on_Two_Bus_Simul_Util = 0.000000 
issued_two_Eff = 0.000000 
queue_avg = 0.001697 


dram_util_bins: 0 0 0 0 0 0 0 0 0 0
dram_eff_bins: 0 0 0 0 0 0 0 0 0 0
mrqq: max=13 avg=0.00169699
Memory Partition 30: 
Cache L2_bank_060:
MSHR contents

Cache L2_bank_061:
MSHR contents

In Dram Latency Queue (total = 0): 
DRAM[30]: 16 bks, busW=16 BL=2 CL=12, tRRD=3 tCCD=1, tRCD=12 tRAS=28 tRP=12 tRC=40
n_cmd=3061885 n_nop=3061299 n_act=10 n_pre=0 n_ref_event=0 n_req=576 n_rd=576 n_rd_L2_A=0 n_write=0 n_wr_bk=0 bw_util=0.0001881
n_activity=1712 dram_eff=0.3364
bk0: 64a 3061815i bk1: 64a 3061815i bk2: 64a 3061815i bk3: 64a 3061815i bk4: 64a 3061815i bk5: 64a 3061815i bk6: 64a 3061815i bk7: 64a 3061815i bk8: 32a 3061844i bk9: 32a 3061844i bk10: 0a 3061885i bk11: 0a 3061885i bk12: 0a 3061885i bk13: 0a 3061885i bk14: 0a 3061885i bk15: 0a 3061885i 

------------------------------------------------------------------------

Row_Buffer_Locality = 0.982639
Row_Buffer_Locality_read = 0.982639
Row_Buffer_Locality_write = -nan
Bank_Level_Parallism = 1.000000
Bank_Level_Parallism_Col = 1.000000
Bank_Level_Parallism_Ready = 1.000000
write_to_read_ratio_blp_rw_average = 0.000000
GrpLevelPara = 1.000000 

BW Util details:
bwutil = 0.000188 
total_CMD = 3061885 
util_bw = 576 
Wasted_Col = 642 
Wasted_Row = 0 
Idle = 3060667 

BW Util Bottlenecks: 
RCDc_limit = 120 
RCDWRc_limit = 0 
WTRc_limit = 0 
RTWc_limit = 0 
CCDLc_limit = 522 
rwq = 0 
CCDLc_limit_alone = 522 
WTRc_limit_alone = 0 
RTWc_limit_alone = 0 

Commands details: 
total_CMD = 3061885 
n_nop = 3061299 
Read = 576 
Write = 0 
L2_Alloc = 0 
L2_WB = 0 
n_act = 10 
n_pre = 0 
n_ref = 0 
n_req = 576 
total_req = 576 

Dual Bus Interface Util: 
issued_total_row = 10 
issued_total_col = 576 
Row_Bus_Util =  0.000003 
CoL_Bus_Util = 0.000188 
Either_Row_CoL_Bus_Util = 0.000191 
Issued_on_Two_Bus_Simul_Util = 0.000000 
issued_two_Eff = 0.000000 
queue_avg = 0.001697 


dram_util_bins: 0 0 0 0 0 0 0 0 0 0
dram_eff_bins: 0 0 0 0 0 0 0 0 0 0
mrqq: max=13 avg=0.00169699
Memory Partition 31: 
Cache L2_bank_062:
MSHR contents

Cache L2_bank_063:
MSHR contents

In Dram Latency Queue (total = 0): 
DRAM[31]: 16 bks, busW=16 BL=2 CL=12, tRRD=3 tCCD=1, tRCD=12 tRAS=28 tRP=12 tRC=40
n_cmd=3061885 n_nop=3061299 n_act=10 n_pre=0 n_ref_event=0 n_req=576 n_rd=576 n_rd_L2_A=0 n_write=0 n_wr_bk=0 bw_util=0.0001881
n_activity=1712 dram_eff=0.3364
bk0: 64a 3061815i bk1: 64a 3061814i bk2: 64a 3061815i bk3: 64a 3061814i bk4: 64a 3061815i bk5: 64a 3061814i bk6: 64a 3061815i bk7: 64a 3061814i bk8: 32a 3061843i bk9: 32a 3061843i bk10: 0a 3061885i bk11: 0a 3061885i bk12: 0a 3061885i bk13: 0a 3061885i bk14: 0a 3061885i bk15: 0a 3061885i 

------------------------------------------------------------------------

Row_Buffer_Locality = 0.982639
Row_Buffer_Locality_read = 0.982639
Row_Buffer_Locality_write = -nan
Bank_Level_Parallism = 1.000000
Bank_Level_Parallism_Col = 1.000000
Bank_Level_Parallism_Ready = 1.000000
write_to_read_ratio_blp_rw_average = 0.000000
GrpLevelPara = 1.000000 

BW Util details:
bwutil = 0.000188 
total_CMD = 3061885 
util_bw = 576 
Wasted_Col = 648 
Wasted_Row = 0 
Idle = 3060661 

BW Util Bottlenecks: 
RCDc_limit = 120 
RCDWRc_limit = 0 
WTRc_limit = 0 
RTWc_limit = 0 
CCDLc_limit = 528 
rwq = 0 
CCDLc_limit_alone = 528 
WTRc_limit_alone = 0 
RTWc_limit_alone = 0 

Commands details: 
total_CMD = 3061885 
n_nop = 3061299 
Read = 576 
Write = 0 
L2_Alloc = 0 
L2_WB = 0 
n_act = 10 
n_pre = 0 
n_ref = 0 
n_req = 576 
total_req = 576 

Dual Bus Interface Util: 
issued_total_row = 10 
issued_total_col = 576 
Row_Bus_Util =  0.000003 
CoL_Bus_Util = 0.000188 
Either_Row_CoL_Bus_Util = 0.000191 
Issued_on_Two_Bus_Simul_Util = 0.000000 
issued_two_Eff = 0.000000 
queue_avg = 0.001641 


dram_util_bins: 0 0 0 0 0 0 0 0 0 0
dram_eff_bins: 0 0 0 0 0 0 0 0 0 0
mrqq: max=13 avg=0.00164115

========= L2 cache stats =========
L2_cache_bank[0]: Access = 374, Miss = 288, Miss_rate = 0.770, Pending_hits = 0, Reservation_fails = 0
L2_cache_bank[1]: Access = 288, Miss = 288, Miss_rate = 1.000, Pending_hits = 0, Reservation_fails = 0
L2_cache_bank[2]: Access = 288, Miss = 288, Miss_rate = 1.000, Pending_hits = 0, Reservation_fails = 0
L2_cache_bank[3]: Access = 304, Miss = 288, Miss_rate = 0.947, Pending_hits = 0, Reservation_fails = 0
L2_cache_bank[4]: Access = 360, Miss = 360, Miss_rate = 1.000, Pending_hits = 0, Reservation_fails = 0
L2_cache_bank[5]: Access = 344, Miss = 288, Miss_rate = 0.837, Pending_hits = 0, Reservation_fails = 0
L2_cache_bank[6]: Access = 288, Miss = 288, Miss_rate = 1.000, Pending_hits = 0, Reservation_fails = 0
L2_cache_bank[7]: Access = 388, Miss = 288, Miss_rate = 0.742, Pending_hits = 0, Reservation_fails = 0
L2_cache_bank[8]: Access = 288, Miss = 288, Miss_rate = 1.000, Pending_hits = 0, Reservation_fails = 0
L2_cache_bank[9]: Access = 417, Miss = 288, Miss_rate = 0.691, Pending_hits = 0, Reservation_fails = 0
L2_cache_bank[10]: Access = 288, Miss = 288, Miss_rate = 1.000, Pending_hits = 0, Reservation_fails = 0
L2_cache_bank[11]: Access = 432, Miss = 288, Miss_rate = 0.667, Pending_hits = 0, Reservation_fails = 0
L2_cache_bank[12]: Access = 288, Miss = 288, Miss_rate = 1.000, Pending_hits = 0, Reservation_fails = 0
L2_cache_bank[13]: Access = 432, Miss = 288, Miss_rate = 0.667, Pending_hits = 0, Reservation_fails = 0
L2_cache_bank[14]: Access = 288, Miss = 288, Miss_rate = 1.000, Pending_hits = 0, Reservation_fails = 0
L2_cache_bank[15]: Access = 432, Miss = 288, Miss_rate = 0.667, Pending_hits = 0, Reservation_fails = 0
L2_cache_bank[16]: Access = 368, Miss = 288, Miss_rate = 0.783, Pending_hits = 0, Reservation_fails = 0
L2_cache_bank[17]: Access = 288, Miss = 288, Miss_rate = 1.000, Pending_hits = 0, Reservation_fails = 0
L2_cache_bank[18]: Access = 338, Miss = 288, Miss_rate = 0.852, Pending_hits = 0, Reservation_fails = 0
L2_cache_bank[19]: Access = 288, Miss = 288, Miss_rate = 1.000, Pending_hits = 0, Reservation_fails = 0
L2_cache_bank[20]: Access = 293, Miss = 288, Miss_rate = 0.983, Pending_hits = 0, Reservation_fails = 0
L2_cache_bank[21]: Access = 288, Miss = 288, Miss_rate = 1.000, Pending_hits = 0, Reservation_fails = 0
L2_cache_bank[22]: Access = 288, Miss = 288, Miss_rate = 1.000, Pending_hits = 0, Reservation_fails = 0
L2_cache_bank[23]: Access = 288, Miss = 288, Miss_rate = 1.000, Pending_hits = 0, Reservation_fails = 0
L2_cache_bank[24]: Access = 288, Miss = 288, Miss_rate = 1.000, Pending_hits = 0, Reservation_fails = 0
L2_cache_bank[25]: Access = 288, Miss = 288, Miss_rate = 1.000, Pending_hits = 0, Reservation_fails = 0
L2_cache_bank[26]: Access = 288, Miss = 288, Miss_rate = 1.000, Pending_hits = 0, Reservation_fails = 0
L2_cache_bank[27]: Access = 288, Miss = 288, Miss_rate = 1.000, Pending_hits = 0, Reservation_fails = 0
L2_cache_bank[28]: Access = 288, Miss = 288, Miss_rate = 1.000, Pending_hits = 0, Reservation_fails = 0
L2_cache_bank[29]: Access = 288, Miss = 288, Miss_rate = 1.000, Pending_hits = 0, Reservation_fails = 0
L2_cache_bank[30]: Access = 288, Miss = 288, Miss_rate = 1.000, Pending_hits = 0, Reservation_fails = 0
L2_cache_bank[31]: Access = 288, Miss = 288, Miss_rate = 1.000, Pending_hits = 0, Reservation_fails = 0
L2_cache_bank[32]: Access = 288, Miss = 288, Miss_rate = 1.000, Pending_hits = 0, Reservation_fails = 0
L2_cache_bank[33]: Access = 288, Miss = 288, Miss_rate = 1.000, Pending_hits = 0, Reservation_fails = 0
L2_cache_bank[34]: Access = 288, Miss = 288, Miss_rate = 1.000, Pending_hits = 0, Reservation_fails = 0
L2_cache_bank[35]: Access = 288, Miss = 288, Miss_rate = 1.000, Pending_hits = 0, Reservation_fails = 0
L2_cache_bank[36]: Access = 288, Miss = 288, Miss_rate = 1.000, Pending_hits = 0, Reservation_fails = 0
L2_cache_bank[37]: Access = 288, Miss = 288, Miss_rate = 1.000, Pending_hits = 0, Reservation_fails = 0
L2_cache_bank[38]: Access = 288, Miss = 288, Miss_rate = 1.000, Pending_hits = 0, Reservation_fails = 0
L2_cache_bank[39]: Access = 288, Miss = 288, Miss_rate = 1.000, Pending_hits = 0, Reservation_fails = 0
L2_cache_bank[40]: Access = 288, Miss = 288, Miss_rate = 1.000, Pending_hits = 0, Reservation_fails = 0
L2_cache_bank[41]: Access = 288, Miss = 288, Miss_rate = 1.000, Pending_hits = 0, Reservation_fails = 0
L2_cache_bank[42]: Access = 288, Miss = 288, Miss_rate = 1.000, Pending_hits = 0, Reservation_fails = 0
L2_cache_bank[43]: Access = 288, Miss = 288, Miss_rate = 1.000, Pending_hits = 0, Reservation_fails = 0
L2_cache_bank[44]: Access = 288, Miss = 288, Miss_rate = 1.000, Pending_hits = 0, Reservation_fails = 0
L2_cache_bank[45]: Access = 288, Miss = 288, Miss_rate = 1.000, Pending_hits = 0, Reservation_fails = 0
L2_cache_bank[46]: Access = 288, Miss = 288, Miss_rate = 1.000, Pending_hits = 0, Reservation_fails = 0
L2_cache_bank[47]: Access = 288, Miss = 288, Miss_rate = 1.000, Pending_hits = 0, Reservation_fails = 0
L2_cache_bank[48]: Access = 288, Miss = 288, Miss_rate = 1.000, Pending_hits = 0, Reservation_fails = 0
L2_cache_bank[49]: Access = 288, Miss = 288, Miss_rate = 1.000, Pending_hits = 0, Reservation_fails = 0
L2_cache_bank[50]: Access = 288, Miss = 288, Miss_rate = 1.000, Pending_hits = 0, Reservation_fails = 0
L2_cache_bank[51]: Access = 288, Miss = 288, Miss_rate = 1.000, Pending_hits = 0, Reservation_fails = 0
L2_cache_bank[52]: Access = 288, Miss = 288, Miss_rate = 1.000, Pending_hits = 0, Reservation_fails = 0
L2_cache_bank[53]: Access = 288, Miss = 288, Miss_rate = 1.000, Pending_hits = 0, Reservation_fails = 0
L2_cache_bank[54]: Access = 288, Miss = 288, Miss_rate = 1.000, Pending_hits = 0, Reservation_fails = 0
L2_cache_bank[55]: Access = 288, Miss = 288, Miss_rate = 1.000, Pending_hits = 0, Reservation_fails = 0
L2_cache_bank[56]: Access = 288, Miss = 288, Miss_rate = 1.000, Pending_hits = 0, Reservation_fails = 0
L2_cache_bank[57]: Access = 288, Miss = 288, Miss_rate = 1.000, Pending_hits = 0, Reservation_fails = 0
L2_cache_bank[58]: Access = 288, Miss = 288, Miss_rate = 1.000, Pending_hits = 0, Reservation_fails = 0
L2_cache_bank[59]: Access = 288, Miss = 288, Miss_rate = 1.000, Pending_hits = 0, Reservation_fails = 0
L2_cache_bank[60]: Access = 288, Miss = 288, Miss_rate = 1.000, Pending_hits = 0, Reservation_fails = 0
L2_cache_bank[61]: Access = 288, Miss = 288, Miss_rate = 1.000, Pending_hits = 0, Reservation_fails = 0
L2_cache_bank[62]: Access = 288, Miss = 288, Miss_rate = 1.000, Pending_hits = 0, Reservation_fails = 0
L2_cache_bank[63]: Access = 288, Miss = 288, Miss_rate = 1.000, Pending_hits = 0, Reservation_fails = 0
L2_total_cache_accesses = 19458
L2_total_cache_misses = 18504
L2_total_cache_miss_rate = 0.9510
L2_total_cache_pending_hits = 0
L2_total_cache_reservation_fails = 0
L2_total_cache_breakdown:
	L2_cache_stats_breakdown[GLOBAL_ACC_R][HIT] = 954
	L2_cache_stats_breakdown[GLOBAL_ACC_R][HIT_RESERVED] = 0
	L2_cache_stats_breakdown[GLOBAL_ACC_R][MISS] = 4608
	L2_cache_stats_breakdown[GLOBAL_ACC_R][RESERVATION_FAIL] = 0
	L2_cache_stats_breakdown[GLOBAL_ACC_R][SECTOR_MISS] = 13824
	L2_cache_stats_breakdown[LOCAL_ACC_R][HIT] = 0
	L2_cache_stats_breakdown[LOCAL_ACC_R][HIT_RESERVED] = 0
	L2_cache_stats_breakdown[LOCAL_ACC_R][MISS] = 0
	L2_cache_stats_breakdown[LOCAL_ACC_R][RESERVATION_FAIL] = 0
	L2_cache_stats_breakdown[LOCAL_ACC_R][SECTOR_MISS] = 0
	L2_cache_stats_breakdown[CONST_ACC_R][HIT] = 0
	L2_cache_stats_breakdown[CONST_ACC_R][HIT_RESERVED] = 0
	L2_cache_stats_breakdown[CONST_ACC_R][MISS] = 0
	L2_cache_stats_breakdown[CONST_ACC_R][RESERVATION_FAIL] = 0
	L2_cache_stats_breakdown[CONST_ACC_R][SECTOR_MISS] = 0
	L2_cache_stats_breakdown[TEXTURE_ACC_R][HIT] = 0
	L2_cache_stats_breakdown[TEXTURE_ACC_R][HIT_RESERVED] = 0
	L2_cache_stats_breakdown[TEXTURE_ACC_R][MISS] = 0
	L2_cache_stats_breakdown[TEXTURE_ACC_R][RESERVATION_FAIL] = 0
	L2_cache_stats_breakdown[TEXTURE_ACC_R][SECTOR_MISS] = 0
	L2_cache_stats_breakdown[GLOBAL_ACC_W][HIT] = 0
	L2_cache_stats_breakdown[GLOBAL_ACC_W][HIT_RESERVED] = 0
	L2_cache_stats_breakdown[GLOBAL_ACC_W][MISS] = 1
	L2_cache_stats_breakdown[GLOBAL_ACC_W][RESERVATION_FAIL] = 0
	L2_cache_stats_breakdown[GLOBAL_ACC_W][SECTOR_MISS] = 71
	L2_cache_stats_breakdown[LOCAL_ACC_W][HIT] = 0
	L2_cache_stats_breakdown[LOCAL_ACC_W][HIT_RESERVED] = 0
	L2_cache_stats_breakdown[LOCAL_ACC_W][MISS] = 0
	L2_cache_stats_breakdown[LOCAL_ACC_W][RESERVATION_FAIL] = 0
	L2_cache_stats_breakdown[LOCAL_ACC_W][SECTOR_MISS] = 0
	L2_cache_stats_breakdown[L1_WRBK_ACC][HIT] = 0
	L2_cache_stats_breakdown[L1_WRBK_ACC][HIT_RESERVED] = 0
	L2_cache_stats_breakdown[L1_WRBK_ACC][MISS] = 0
	L2_cache_stats_breakdown[L1_WRBK_ACC][RESERVATION_FAIL] = 0
	L2_cache_stats_breakdown[L1_WRBK_ACC][SECTOR_MISS] = 0
	L2_cache_stats_breakdown[L2_WRBK_ACC][HIT] = 0
	L2_cache_stats_breakdown[L2_WRBK_ACC][HIT_RESERVED] = 0
	L2_cache_stats_breakdown[L2_WRBK_ACC][MISS] = 0
	L2_cache_stats_breakdown[L2_WRBK_ACC][RESERVATION_FAIL] = 0
	L2_cache_stats_breakdown[L2_WRBK_ACC][SECTOR_MISS] = 0
	L2_cache_stats_breakdown[INST_ACC_R][HIT] = 0
	L2_cache_stats_breakdown[INST_ACC_R][HIT_RESERVED] = 0
	L2_cache_stats_breakdown[INST_ACC_R][MISS] = 0
	L2_cache_stats_breakdown[INST_ACC_R][RESERVATION_FAIL] = 0
	L2_cache_stats_breakdown[INST_ACC_R][SECTOR_MISS] = 0
	L2_cache_stats_breakdown[L1_WR_ALLOC_R][HIT] = 0
	L2_cache_stats_breakdown[L1_WR_ALLOC_R][HIT_RESERVED] = 0
	L2_cache_stats_breakdown[L1_WR_ALLOC_R][MISS] = 0
	L2_cache_stats_breakdown[L1_WR_ALLOC_R][RESERVATION_FAIL] = 0
	L2_cache_stats_breakdown[L1_WR_ALLOC_R][SECTOR_MISS] = 0
	L2_cache_stats_breakdown[L2_WR_ALLOC_R][HIT] = 0
	L2_cache_stats_breakdown[L2_WR_ALLOC_R][HIT_RESERVED] = 0
	L2_cache_stats_breakdown[L2_WR_ALLOC_R][MISS] = 0
	L2_cache_stats_breakdown[L2_WR_ALLOC_R][RESERVATION_FAIL] = 0
	L2_cache_stats_breakdown[L2_WR_ALLOC_R][SECTOR_MISS] = 0
	L2_cache_stats_breakdown[GLOBAL_ACC_R][TOTAL_ACCESS] = 19386
	L2_cache_stats_breakdown[GLOBAL_ACC_W][TOTAL_ACCESS] = 72
L2_total_cache_reservation_fail_breakdown:
L2_cache_data_port_util = 0.000
L2_cache_fill_port_util = 0.000

icnt_total_pkts_mem_to_simt=19458
icnt_total_pkts_simt_to_mem=19458
LD_mem_lat_dist  0 0 0 0 0 0 0 0 0 0 0 0 0 0 0 0 0 0 0 0 0 0 0 0 0 0 0
ST_mem_lat_dist  0 0 0 0 0 0 0 0 0 0 0 0 0 0 0 0 0 0 0 0 0 0 0 0 0 0 0
----------------------------Interconnect-DETAILS--------------------------------
Req_Network_injected_packets_num = 19458
Req_Network_cycles = 4077712
Req_Network_injected_packets_per_cycle =       0.0048 
Req_Network_conflicts_per_cycle =       0.0077
Req_Network_conflicts_per_cycle_util =       2.3044
Req_Bank_Level_Parallism =       1.4289
Req_Network_in_buffer_full_per_cycle =       0.0000
Req_Network_in_buffer_avg_util =       0.0098
Req_Network_out_buffer_full_per_cycle =       0.0000
Req_Network_out_buffer_avg_util =       0.0001

Reply_Network_injected_packets_num = 19458
Reply_Network_cycles = 4077712
Reply_Network_injected_packets_per_cycle =        0.0048
Reply_Network_conflicts_per_cycle =        0.0009
Reply_Network_conflicts_per_cycle_util =       0.3406
Reply_Bank_Level_Parallism =       1.8234
Reply_Network_in_buffer_full_per_cycle =       0.0000
Reply_Network_in_buffer_avg_util =       0.0000
Reply_Network_out_buffer_full_per_cycle =       0.0000
Reply_Network_out_buffer_avg_util =       0.0001
----------------------------END-of-Interconnect-DETAILS-------------------------


gpgpu_simulation_time = 0 days, 3 hrs, 24 min, 6 sec (12246 sec)
gpgpu_simulation_rate = 44345 (inst/sec)
gpgpu_simulation_rate = 332 (cycle/sec)
gpgpu_silicon_slowdown = 3409638x
GPGPU-Sim: detected inactive GPU simulation thread
GPGPU-Sim PTX: Setting up arguments for 4 bytes starting at 0x7fff7b18cf9c..
GPGPU-Sim PTX: Setting up arguments for 8 bytes starting at 0x7fff7b18cf90..
GPGPU-Sim PTX: Setting up arguments for 8 bytes starting at 0x7fff7b18cf88..
GPGPU-Sim PTX: Setting up arguments for 8 bytes starting at 0x7fff7b18cf80..
GPGPU-Sim PTX: Setting up arguments for 4 bytes starting at 0x7fff7b18cf98..

GPGPU-Sim PTX: cudaLaunch for 0x0x4123e6 (mode=performance simulation) on stream 1
GPGPU-Sim PTX: PDOM analysis already done for _Z25ethash_calculate_dag_itemjP8hash64_tmS0_j 
GPGPU-Sim PTX: pushing kernel '_Z25ethash_calculate_dag_itemjP8hash64_tmS0_j' to stream 1, gridDim= (4,1,1) blockDim = (256,1,1) 
GPGPU-Sim: synchronize waiting for inactive GPU simulation
GPGPU-Sim API: Stream Manager State
GPGPU-Sim API:    stream 1 has 1 operations
GPGPU-Sim API:       0 :  stream operation kernel
GPGPU-Sim uArch: Shader 36 bind to kernel 10 '_Z25ethash_calculate_dag_itemjP8hash64_tmS0_j'
GPGPU-Sim: Reconfigure L1 cache to 128KB
GPGPU-Sim uArch: Shader 37 bind to kernel 10 '_Z25ethash_calculate_dag_itemjP8hash64_tmS0_j'
GPGPU-Sim uArch: Shader 38 bind to kernel 10 '_Z25ethash_calculate_dag_itemjP8hash64_tmS0_j'
GPGPU-Sim uArch: Shader 39 bind to kernel 10 '_Z25ethash_calculate_dag_itemjP8hash64_tmS0_j'
