

        *** GPGPU-Sim Simulator Version 4.0.0  [build gpgpu-sim_git-commit-_modified_0.0] ***


GPGPU-Sim PTX: simulation mode 0 (can change with PTX_SIM_MODE_FUNC environment variable:
               1=functional simulation only, 0=detailed performance simulator)
GPGPU-Sim PTX: overriding embedded ptx with ptx file (PTX_SIM_USE_PTX_FILE is set)
GPGPU-Sim: Configuration options:

-save_embedded_ptx                      0 # saves ptx files embedded in binary as <n>.ptx
-keep                                   0 # keep intermediate files created by GPGPU-Sim when interfacing with external programs
-gpgpu_ptx_save_converted_ptxplus                    0 # Saved converted ptxplus to a file
-gpgpu_occupancy_sm_number                   70 # The SM number to pass to ptxas when getting register usage for computing GPU occupancy. This parameter is required in the config.
-ptx_opcode_latency_int      4,13,4,5,145,21 # Opcode latencies for integers <ADD,MAX,MUL,MAD,DIV,SHFL>Default 1,1,19,25,145,32
-ptx_opcode_latency_fp          4,13,4,5,39 # Opcode latencies for single precision floating points <ADD,MAX,MUL,MAD,DIV>Default 1,1,1,1,30
-ptx_opcode_latency_dp         8,19,8,8,330 # Opcode latencies for double precision floating points <ADD,MAX,MUL,MAD,DIV>Default 8,8,8,8,335
-ptx_opcode_latency_sfu                  100 # Opcode latencies for SFU instructionsDefault 8
-ptx_opcode_latency_tesnor                   64 # Opcode latencies for Tensor instructionsDefault 64
-ptx_opcode_initiation_int          2,2,2,2,8,4 # Opcode initiation intervals for integers <ADD,MAX,MUL,MAD,DIV,SHFL>Default 1,1,4,4,32,4
-ptx_opcode_initiation_fp            2,2,2,2,4 # Opcode initiation intervals for single precision floating points <ADD,MAX,MUL,MAD,DIV>Default 1,1,1,1,5
-ptx_opcode_initiation_dp          4,4,4,4,130 # Opcode initiation intervals for double precision floating points <ADD,MAX,MUL,MAD,DIV>Default 8,8,8,8,130
-ptx_opcode_initiation_sfu                    8 # Opcode initiation intervals for sfu instructionsDefault 8
-ptx_opcode_initiation_tensor                   64 # Opcode initiation intervals for tensor instructionsDefault 64
-cdp_latency         7200,8000,100,12000,1600 # CDP API latency <cudaStreamCreateWithFlags, cudaGetParameterBufferV2_init_perWarp, cudaGetParameterBufferV2_perKernel, cudaLaunchDeviceV2_init_perWarp, cudaLaunchDevicV2_perKernel>Default 7200,8000,100,12000,1600
-network_mode                           2 # Interconnection network mode
-inter_config_file                   mesh # Interconnection network config file
-icnt_in_buffer_limit                  512 # in_buffer_limit
-icnt_out_buffer_limit                  512 # out_buffer_limit
-icnt_subnets                           2 # subnets
-icnt_arbiter_algo                      1 # arbiter_algo
-icnt_verbose                           0 # inct_verbose
-icnt_grant_cycles                      1 # grant_cycles
-gpgpu_ptx_use_cuobjdump                    1 # Use cuobjdump to extract ptx and sass from binaries
-gpgpu_experimental_lib_support                    0 # Try to extract code from cuda libraries [Broken because of unknown cudaGetExportTable]
-checkpoint_option                      0 #  checkpointing flag (0 = no checkpoint)
-checkpoint_kernel                      1 #  checkpointing during execution of which kernel (1- 1st kernel)
-checkpoint_CTA                         0 #  checkpointing after # of CTA (< less than total CTA)
-resume_option                          0 #  resume flag (0 = no resume)
-resume_kernel                          0 #  Resume from which kernel (1= 1st kernel)
-resume_CTA                             0 #  resume from which CTA 
-checkpoint_CTA_t                       0 #  resume from which CTA 
-checkpoint_insn_Y                      0 #  resume from which CTA 
-gpgpu_ptx_convert_to_ptxplus                    0 # Convert SASS (native ISA) to ptxplus and run ptxplus
-gpgpu_ptx_force_max_capability                   70 # Force maximum compute capability
-gpgpu_ptx_inst_debug_to_file                    0 # Dump executed instructions' debug information to file
-gpgpu_ptx_inst_debug_file       inst_debug.txt # Executed instructions' debug output file
-gpgpu_ptx_inst_debug_thread_uid                    1 # Thread UID for executed instructions' debug output
-gpgpu_n_mem_for_l2wb_pcommit                   32 # number of memory modules (e.g. memory controllers) in gpu
-gpgpu_n_sub_partition_per_mchannel_for_l2wb_pcommit                    2 # number of memory subpartition in each memory module
-gpgpu_dl2_bsize_for_l2wb_pcommit                  128 # default 128 bytes
-gpgpu_simd_model                       1 # 1 = post-dominator
-gpgpu_shader_core_pipeline              2048:32 # shader core pipeline config, i.e., {<nthread>:<warpsize>}
-gpgpu_tex_cache:l1  N:4:128:256,L:R:m:N:L,T:512:8,128:2 # per-shader L1 texture cache  (READ-ONLY) config  {<nsets>:<bsize>:<assoc>,<rep>:<wr>:<alloc>:<wr_alloc>,<mshr>:<N>:<merge>,<mq>:<rf>}
-gpgpu_const_cache:l1 N:128:64:8,L:R:f:N:L,S:2:64,4 # per-shader L1 constant memory cache  (READ-ONLY) config  {<nsets>:<bsize>:<assoc>,<rep>:<wr>:<alloc>:<wr_alloc>,<mshr>:<N>:<merge>,<mq>} 
-gpgpu_cache:il1     N:64:128:16,L:R:f:N:L,S:2:48,4 # shader L1 instruction cache config  {<nsets>:<bsize>:<assoc>,<rep>:<wr>:<alloc>:<wr_alloc>,<mshr>:<N>:<merge>,<mq>} 
-gpgpu_cache:dl1     S:1:128:256,L:L:s:N:L,A:256:8,16:0,32 # per-shader L1 data cache config  {<nsets>:<bsize>:<assoc>,<rep>:<wr>:<alloc>:<wr_alloc>,<mshr>:<N>:<merge>,<mq> | none}
-gpgpu_l1_banks                         4 # The number of L1 cache banks
-gpgpu_l1_banks_byte_interleaving                   32 # l1 banks byte interleaving granularity
-gpgpu_l1_banks_hashing_function                    0 # l1 banks hashing function
-gpgpu_l1_latency                      20 # L1 Hit Latency
-gpgpu_smem_latency                    20 # smem Latency
-gpgpu_cache:dl1PrefL1                 none # per-shader L1 data cache config  {<nsets>:<bsize>:<assoc>,<rep>:<wr>:<alloc>:<wr_alloc>,<mshr>:<N>:<merge>,<mq> | none}
-gpgpu_cache:dl1PrefShared                 none # per-shader L1 data cache config  {<nsets>:<bsize>:<assoc>,<rep>:<wr>:<alloc>:<wr_alloc>,<mshr>:<N>:<merge>,<mq> | none}
-gpgpu_gmem_skip_L1D                    0 # global memory access skip L1D cache (implements -Xptxas -dlcm=cg, default=no skip)
-gpgpu_perfect_mem                      0 # enable perfect memory mode (no cache miss)
-n_regfile_gating_group                    4 # group of lanes that should be read/written together)
-gpgpu_clock_gated_reg_file                    0 # enable clock gated reg file for power calculations
-gpgpu_clock_gated_lanes                    0 # enable clock gated lanes for power calculations
-gpgpu_shader_registers                65536 # Number of registers per shader core. Limits number of concurrent CTAs. (default 8192)
-gpgpu_registers_per_block                65536 # Maximum number of registers per CTA. (default 8192)
-gpgpu_ignore_resources_limitation                    0 # gpgpu_ignore_resources_limitation (default 0)
-gpgpu_shader_cta                      32 # Maximum number of concurrent CTAs in shader (default 8)
-gpgpu_num_cta_barriers                   16 # Maximum number of named barriers per CTA (default 16)
-gpgpu_n_clusters                      80 # number of processing clusters
-gpgpu_n_cores_per_cluster                    1 # number of simd cores per cluster
-gpgpu_n_cluster_ejection_buffer_size                   32 # number of packets in ejection buffer
-gpgpu_n_ldst_response_buffer_size                    2 # number of response packets in ld/st unit ejection buffer
-gpgpu_shmem_per_block                65536 # Size of shared memory per thread block or CTA (default 48kB)
-gpgpu_shmem_size                   98304 # Size of shared memory per shader core (default 16kB)
-gpgpu_adaptive_cache_config            536870913 # adaptive_cache_config
-gpgpu_shmem_sizeDefault                98304 # Size of shared memory per shader core (default 16kB)
-gpgpu_shmem_size_PrefL1                16384 # Size of shared memory per shader core (default 16kB)
-gpgpu_shmem_size_PrefShared                16384 # Size of shared memory per shader core (default 16kB)
-gpgpu_shmem_num_banks                   32 # Number of banks in the shared memory in each shader core (default 16)
-gpgpu_shmem_limited_broadcast                    0 # Limit shared memory to do one broadcast per cycle (default on)
-gpgpu_shmem_warp_parts                    1 # Number of portions a warp is divided into for shared memory bank conflict check 
-gpgpu_mem_unit_ports                    1 # The number of memory transactions allowed per core cycle
-gpgpu_shmem_warp_parts                    1 # Number of portions a warp is divided into for shared memory bank conflict check 
-gpgpu_warpdistro_shader                   -1 # Specify which shader core to collect the warp size distribution from
-gpgpu_warp_issue_shader                    0 # Specify which shader core to collect the warp issue distribution from
-gpgpu_local_mem_map                    1 # Mapping from local memory space address to simulated GPU physical address space (default = enabled)
-gpgpu_num_reg_banks                   16 # Number of register banks (default = 8)
-gpgpu_reg_bank_use_warp_id                    0 # Use warp ID in mapping registers to banks (default = off)
-gpgpu_sub_core_model                    1 # Sub Core Volta/Pascal model (default = off)
-gpgpu_enable_specialized_operand_collector                    0 # enable_specialized_operand_collector
-gpgpu_operand_collector_num_units_sp                    4 # number of collector units (default = 4)
-gpgpu_operand_collector_num_units_dp                    0 # number of collector units (default = 0)
-gpgpu_operand_collector_num_units_sfu                    4 # number of collector units (default = 4)
-gpgpu_operand_collector_num_units_int                    0 # number of collector units (default = 0)
-gpgpu_operand_collector_num_units_tensor_core                    4 # number of collector units (default = 4)
-gpgpu_operand_collector_num_units_mem                    2 # number of collector units (default = 2)
-gpgpu_operand_collector_num_units_gen                    8 # number of collector units (default = 0)
-gpgpu_operand_collector_num_in_ports_sp                    1 # number of collector unit in ports (default = 1)
-gpgpu_operand_collector_num_in_ports_dp                    0 # number of collector unit in ports (default = 0)
-gpgpu_operand_collector_num_in_ports_sfu                    1 # number of collector unit in ports (default = 1)
-gpgpu_operand_collector_num_in_ports_int                    0 # number of collector unit in ports (default = 0)
-gpgpu_operand_collector_num_in_ports_tensor_core                    1 # number of collector unit in ports (default = 1)
-gpgpu_operand_collector_num_in_ports_mem                    1 # number of collector unit in ports (default = 1)
-gpgpu_operand_collector_num_in_ports_gen                    8 # number of collector unit in ports (default = 0)
-gpgpu_operand_collector_num_out_ports_sp                    1 # number of collector unit in ports (default = 1)
-gpgpu_operand_collector_num_out_ports_dp                    0 # number of collector unit in ports (default = 0)
-gpgpu_operand_collector_num_out_ports_sfu                    1 # number of collector unit in ports (default = 1)
-gpgpu_operand_collector_num_out_ports_int                    0 # number of collector unit in ports (default = 0)
-gpgpu_operand_collector_num_out_ports_tensor_core                    1 # number of collector unit in ports (default = 1)
-gpgpu_operand_collector_num_out_ports_mem                    1 # number of collector unit in ports (default = 1)
-gpgpu_operand_collector_num_out_ports_gen                    8 # number of collector unit in ports (default = 0)
-gpgpu_coalesce_arch                   60 # Coalescing arch (GT200 = 13, Fermi = 20)
-gpgpu_num_sched_per_core                    4 # Number of warp schedulers per core
-gpgpu_max_insn_issue_per_warp                    1 # Max number of instructions that can be issued per warp in one cycle by scheduler (either 1 or 2)
-gpgpu_dual_issue_diff_exec_units                    1 # should dual issue use two different execution unit resources (Default = 1)
-gpgpu_simt_core_sim_order                    1 # Select the simulation order of cores in a cluster (0=Fix, 1=Round-Robin)
-gpgpu_pipeline_widths 4,4,4,4,4,4,4,4,4,4,8,4,4 # Pipeline widths ID_OC_SP,ID_OC_DP,ID_OC_INT,ID_OC_SFU,ID_OC_MEM,OC_EX_SP,OC_EX_DP,OC_EX_INT,OC_EX_SFU,OC_EX_MEM,EX_WB,ID_OC_TENSOR_CORE,OC_EX_TENSOR_CORE
-gpgpu_tensor_core_avail                    1 # Tensor Core Available (default=0)
-gpgpu_num_sp_units                     4 # Number of SP units (default=1)
-gpgpu_num_dp_units                     4 # Number of DP units (default=0)
-gpgpu_num_int_units                    4 # Number of INT units (default=0)
-gpgpu_num_sfu_units                    4 # Number of SF units (default=1)
-gpgpu_num_tensor_core_units                    4 # Number of tensor_core units (default=1)
-gpgpu_num_mem_units                    1 # Number if ldst units (default=1) WARNING: not hooked up to anything
-gpgpu_scheduler                      gto # Scheduler configuration: < lrr | gto | two_level_active > If two_level_active:<num_active_warps>:<inner_prioritization>:<outer_prioritization>For complete list of prioritization values see shader.h enum scheduler_prioritization_typeDefault: gto
-gpgpu_concurrent_kernel_sm                    0 # Support concurrent kernels on a SM (default = disabled)
-gpgpu_perfect_inst_const_cache                    1 # perfect inst and const cache mode, so all inst and const hits in the cache(default = disabled)
-gpgpu_inst_fetch_throughput                    4 # the number of fetched intruction per warp each cycle
-gpgpu_reg_file_port_throughput                    2 # the number ports of the register file
-specialized_unit_1         0,4,4,4,4,BRA # specialized unit config {<enabled>,<num_units>:<latency>:<initiation>,<ID_OC_SPEC>:<OC_EX_SPEC>,<NAME>}
-specialized_unit_2         0,4,4,4,4,BRA # specialized unit config {<enabled>,<num_units>:<latency>:<initiation>,<ID_OC_SPEC>:<OC_EX_SPEC>,<NAME>}
-specialized_unit_3         0,4,4,4,4,BRA # specialized unit config {<enabled>,<num_units>:<latency>:<initiation>,<ID_OC_SPEC>:<OC_EX_SPEC>,<NAME>}
-specialized_unit_4         0,4,4,4,4,BRA # specialized unit config {<enabled>,<num_units>:<latency>:<initiation>,<ID_OC_SPEC>:<OC_EX_SPEC>,<NAME>}
-specialized_unit_5         0,4,4,4,4,BRA # specialized unit config {<enabled>,<num_units>:<latency>:<initiation>,<ID_OC_SPEC>:<OC_EX_SPEC>,<NAME>}
-specialized_unit_6         0,4,4,4,4,BRA # specialized unit config {<enabled>,<num_units>:<latency>:<initiation>,<ID_OC_SPEC>:<OC_EX_SPEC>,<NAME>}
-specialized_unit_7         0,4,4,4,4,BRA # specialized unit config {<enabled>,<num_units>:<latency>:<initiation>,<ID_OC_SPEC>:<OC_EX_SPEC>,<NAME>}
-specialized_unit_8         0,4,4,4,4,BRA # specialized unit config {<enabled>,<num_units>:<latency>:<initiation>,<ID_OC_SPEC>:<OC_EX_SPEC>,<NAME>}
-gpgpu_perf_sim_memcpy                    1 # Fill the L2 cache on memcpy
-gpgpu_simple_dram_model                    0 # simple_dram_model with fixed latency and BW
-gpgpu_dram_scheduler                    1 # 0 = fifo, 1 = FR-FCFS (defaul)
-gpgpu_dram_partition_queues          64:64:64:64 # i2$:$2d:d2$:$2i
-l2_ideal                               0 # Use a ideal L2 cache that always hit
-gpgpu_cache:dl2     S:32:128:24,L:B:m:L:P,A:192:4,32:0,32 # unified banked L2 data cache config  {<nsets>:<bsize>:<assoc>,<rep>:<wr>:<alloc>:<wr_alloc>,<mshr>:<N>:<merge>,<mq>}
-gpgpu_cache:dl2_texture_only                    0 # L2 cache used for texture only
-gpgpu_n_mem                           32 # number of memory modules (e.g. memory controllers) in gpu
-gpgpu_n_sub_partition_per_mchannel                    2 # number of memory subpartition in each memory module
-gpgpu_n_mem_per_ctrlr                    1 # number of memory chips per memory controller
-gpgpu_memlatency_stat                   14 # track and display latency statistics 0x2 enables MC, 0x4 enables queue logs
-gpgpu_frfcfs_dram_sched_queue_size                   64 # 0 = unlimited (default); # entries per chip
-gpgpu_dram_return_queue_size                  192 # 0 = unlimited (default); # entries per chip
-gpgpu_dram_buswidth                   16 # default = 4 bytes (8 bytes per cycle at DDR)
-gpgpu_dram_burst_length                    2 # Burst length of each DRAM request (default = 4 data bus cycle)
-dram_data_command_freq_ratio                    2 # Frequency ratio between DRAM data bus and command bus (default = 2 times, i.e. DDR)
-gpgpu_dram_timing_opt nbk=16:CCD=1:RRD=3:RCD=12:RAS=28:RP=12:RC=40: CL=12:WL=2:CDLR=3:WR=10:nbkgrp=4:CCDL=2:RTPL=3 # DRAM timing parameters = {nbk:tCCD:tRRD:tRCD:tRAS:tRP:tRC:CL:WL:tCDLR:tWR:nbkgrp:tCCDL:tRTPL}
-gpgpu_l2_rop_latency                  160 # ROP queue latency (default 85)
-dram_latency                         150 # DRAM latency (default 30)
-dram_write_latency                   150 # DRAM write latency (default 100)
-dram_dual_bus_interface                    1 # dual_bus_interface (default = 0) 
-dram_bnk_indexing_policy                    0 # dram_bnk_indexing_policy (0 = normal indexing, 1 = Xoring with the higher bits) (Default = 0)
-dram_bnkgrp_indexing_policy                    1 # dram_bnkgrp_indexing_policy (0 = take higher bits, 1 = take lower bits) (Default = 0)
-dram_seperate_write_queue_enable                    0 # Seperate_Write_Queue_Enable
-dram_write_queue_size             32:28:16 # Write_Queue_Size
-dram_elimnate_rw_turnaround                    0 # elimnate_rw_turnaround i.e set tWTR and tRTW = 0
-icnt_flit_size                        40 # icnt_flit_size
-gpgpu_mem_addr_mapping dramid@8;00000000.00000000.00000000.00000000.0000RRRR.RRRRRRRR.RBBBCCCB.CCCSSSSS # mapping memory address to dram model {dramid@<start bit>;<memory address map>}
-gpgpu_mem_addr_test                    0 # run sweep test to check address mapping for aliased address
-gpgpu_mem_address_mask                    1 # 0 = old addressing mask, 1 = new addressing mask, 2 = new add. mask + flipped bank sel and chip sel bits
-gpgpu_memory_partition_indexing                    0 # 0 = no indexing, 1 = bitwise xoring, 2 = IPoly, 3 = custom indexing
-gpuwattch_xml_file         gpuwattch.xml # GPUWattch XML file
-power_simulation_enabled                    0 # Turn on power simulator (1=On, 0=Off)
-power_per_cycle_dump                    0 # Dump detailed power output each cycle
-power_trace_enabled                    0 # produce a file for the power trace (1=On, 0=Off)
-power_trace_zlevel                     6 # Compression level of the power trace output log (0=no comp, 9=highest)
-steady_power_levels_enabled                    0 # produce a file for the steady power levels (1=On, 0=Off)
-steady_state_definition                  8:4 # allowed deviation:number of samples
-gpgpu_max_cycle                        0 # terminates gpu simulation early (0 = no limit)
-gpgpu_max_insn                         0 # terminates gpu simulation early (0 = no limit)
-gpgpu_max_cta                          0 # terminates gpu simulation early (0 = no limit)
-gpgpu_max_completed_cta                    0 # terminates gpu simulation early (0 = no limit)
-gpgpu_runtime_stat                   500 # display runtime statistics such as dram utilization {<freq>:<flag>}
-liveness_message_freq                    1 # Minimum number of seconds between simulation liveness messages (0 = always print)
-gpgpu_compute_capability_major                    7 # Major compute capability version number
-gpgpu_compute_capability_minor                    0 # Minor compute capability version number
-gpgpu_flush_l1_cache                    1 # Flush L1 cache at the end of each kernel call
-gpgpu_flush_l2_cache                    0 # Flush L2 cache at the end of each kernel call
-gpgpu_deadlock_detect                    1 # Stop the simulation at deadlock (1=on (default), 0=off)
-gpgpu_ptx_instruction_classification                    0 # if enabled will classify ptx instruction types per kernel (Max 255 kernels now)
-gpgpu_ptx_sim_mode                     0 # Select between Performance (default) or Functional simulation (1)
-gpgpu_clock_domains 1132.0:1132.0:1132.0:850.0 # Clock Domain Frequencies in MhZ {<Core Clock>:<ICNT Clock>:<L2 Clock>:<DRAM Clock>}
-gpgpu_max_concurrent_kernel                    8 # maximum kernels that can run concurrently on GPU
-gpgpu_cflog_interval                    0 # Interval between each snapshot in control flow logger
-visualizer_enabled               adda8e58574106fd26e85d273a499eea  /home/pli11/Desktop/re_test/megakv/delete/run
Extracting PTX file and ptxas options    1: run.1.sm_70.ptx -arch=sm_70
      0 # Turn on visualizer output (1=On, 0=Off)
-visualizer_outputfile                 NULL # Specifies the output log file for visualizer
-visualizer_zlevel                      6 # Compression level of the visualizer output log (0=no comp, 9=highest)
-gpgpu_stack_size_limit                 1024 # GPU thread stack size
-gpgpu_heap_size_limit              8388608 # GPU malloc heap size 
-gpgpu_runtime_sync_depth_limit                    2 # GPU device runtime synchronize depth
-gpgpu_runtime_pending_launch_count_limit                 2048 # GPU device runtime pending launch count
-trace_enabled                          0 # Turn on traces
-trace_components                    none # comma seperated list of traces to enable. Complete list found in trace_streams.tup. Default none
-trace_sampling_core                    0 # The core which is printed using CORE_DPRINTF. Default 0
-trace_sampling_memory_partition                   -1 # The memory partition which is printed using MEMPART_DPRINTF. Default -1 (i.e. all)
-enable_ptx_file_line_stats                    1 # Turn on PTX source line statistic profiling. (1 = On)
-ptx_line_stats_filename gpgpu_inst_stats.txt # Output file for PTX source line statistics.
-gpgpu_kernel_launch_latency                 5000 # Kernel launch latency in cycles. Default: 0
-gpgpu_cdp_enabled                      0 # Turn on CDP
-gpgpu_TB_launch_latency                    0 # thread block launch latency in cycles. Default: 0
DRAM Timing Options:
nbk                                    16 # number of banks
CCD                                     1 # column to column delay
RRD                                     3 # minimal delay between activation of rows in different banks
RCD                                    12 # row to column delay
RAS                                    28 # time needed to activate row
RP                                     12 # time needed to precharge (deactivate) row
RC                                     40 # row cycle time
CDLR                                    3 # switching from write to read (changes tWTR)
WR                                     10 # last data-in to row precharge
CL                                     12 # CAS latency
WL                                      2 # Write latency
nbkgrp                                  4 # number of bank groups
CCDL                                    2 # column to column delay between accesses to different bank groups
RTPL                                    3 # read to precharge delay between accesses to different bank groups
Total number of memory sub partition = 64
addr_dec_mask[CHIP]  = 0000000000001f00 	high:13 low:8
addr_dec_mask[BK]    = 00000000000e2000 	high:20 low:13
addr_dec_mask[ROW]   = 00000001fff00000 	high:33 low:20
addr_dec_mask[COL]   = 000000000001c0ff 	high:17 low:0
addr_dec_mask[BURST] = 000000000000001f 	high:5 low:0
sub_partition_id_mask = 0000000000002000
GPGPU-Sim uArch: clock freqs: 1132000000.000000:1132000000.000000:1132000000.000000:850000000.000000
GPGPU-Sim uArch: clock periods: 0.00000000088339222615:0.00000000088339222615:0.00000000088339222615:0.00000000117647058824
*** Initializing Memory Statistics ***
GPGPU-Sim uArch: performance model initialization complete.
self exe links to: /home/pli11/Desktop/re_test/megakv/delete/run
self exe links to: /home/pli11/Desktop/re_test/megakv/delete/run
10.1
GPGPU-Sim PTX: __cudaRegisterFatBinary, fat_cubin_handle = 1, filename=default
self exe links to: /home/pli11/Desktop/re_test/megakv/delete/run
Running md5sum using "md5sum /home/pli11/Desktop/re_test/megakv/delete/run "
self exe links to: /home/pli11/Desktop/re_test/megakv/delete/run
Extracting specific PTX file named run.1.sm_70.ptx 
GPGPU-Sim PTX: __cudaRegisterFunction _Z11hash_deleteP7ielem_sP8bucket_sii : hostFun 0x0x40246f, fat_cubin_handle = 1
GPGPU-Sim PTX: Parsing run.1.sm_70.ptx
GPGPU-Sim PTX: instruction assembly for function '_Z16hash_delete_nvmbP7ielem_sP8bucket_sii'...   done.
GPGPU-Sim PTX: instruction assembly for function '_Z16hash_delete_nvmoP7ielem_sP8bucket_sii'...   done.
GPGPU-Sim PTX: instruction assembly for function '_Z16hash_delete_nvmuP7ielem_sP8bucket_sii'...   done.
GPGPU-Sim PTX: instruction assembly for function '_Z11kernel_l2wbv'...   done.
GPGPU-Sim PTX: instruction assembly for function '_Z15kernel_l2wb_pctv'...   done.
GPGPU-Sim PTX: instruction assembly for function '_Z11hash_deleteP7ielem_sP8bucket_sii'...   done.
GPGPU-Sim PTX: finished parsing EMBEDDED .ptx file run.1.sm_70.ptx
GPGPU-Sim PTX: loading globals with explicit initializers... 
GPGPU-Sim PTX: finished loading globals (0 bytes total).
GPGPU-Sim PTX: loading constants with explicit initializers...  done.
GPGPU-Sim PTX: Loading PTXInfo from run.1.sm_70.ptx
GPGPU-Sim PTX: Kernel '_Z11hash_deleteP7ielem_sP8bucket_sii' : regs=15, lmem=0, smem=0, cmem=376
GPGPU-Sim PTX: Kernel '_Z15kernel_l2wb_pctv' : regs=8, lmem=0, smem=0, cmem=352
GPGPU-Sim PTX: Kernel '_Z11kernel_l2wbv' : regs=8, lmem=0, smem=0, cmem=352
GPGPU-Sim PTX: Kernel '_Z16hash_delete_nvmuP7ielem_sP8bucket_sii' : regs=17, lmem=0, smem=0, cmem=376
GPGPU-Sim PTX: Kernel '_Z16hash_delete_nvmoP7ielem_sP8bucket_sii' : regs=17, lmem=0, smem=0, cmem=376
GPGPU-Sim PTX: Kernel '_Z16hash_delete_nvmbP7ielem_sP8bucket_sii' : regs=17, lmem=0, smem=0, cmem=376
GPGPU-Sim PTX: __cudaRegisterFunction _Z15kernel_l2wb_pctv : hostFun 0x0x40231f, fat_cubin_handle = 1
GPGPU-Sim PTX: __cudaRegisterFunction _Z11kernel_l2wbv : hostFun 0x0x402225, fat_cubin_handle = 1
GPGPU-Sim PTX: __cudaRegisterFunction _Z16hash_delete_nvmuP7ielem_sP8bucket_sii : hostFun 0x0x402108, fat_cubin_handle = 1
GPGPU-Sim PTX: __cudaRegisterFunction _Z16hash_delete_nvmoP7ielem_sP8bucket_sii : hostFun 0x0x401f95, fat_cubin_handle = 1
GPGPU-Sim PTX: __cudaRegisterFunction _Z16hash_delete_nvmbP7ielem_sP8bucket_sii : hostFun 0x0x401e22, fat_cubin_handle = 1
GPGPU-Sim PTX: cudaStreamCreate
GPGPU-Sim: synchronize waiting for inactive GPU simulation
GPGPU-Sim API: Stream Manager State
GPGPU-Sim API:    stream 1 has 1 operations
GPGPU-Sim API:       0 :  stream operation memcpy host-to-device
GPGPU-Sim: detected inactive GPU simulation thread
GPGPU-Sim PTX: Setting up arguments for 8 bytes starting at 0x7fff0d8b6768..
GPGPU-Sim PTX: Setting up arguments for 8 bytes starting at 0x7fff0d8b6760..
GPGPU-Sim PTX: Setting up arguments for 4 bytes starting at 0x7fff0d8b675c..
GPGPU-Sim PTX: Setting up arguments for 4 bytes starting at 0x7fff0d8b6758..

GPGPU-Sim PTX: cudaLaunch for 0x0x40246f (mode=performance simulation) on stream 1
GPGPU-Sim PTX: finding reconvergence points for '_Z11hash_deleteP7ielem_sP8bucket_sii'...
GPGPU-Sim PTX: Finding dominators for '_Z11hash_deleteP7ielem_sP8bucket_sii'...
GPGPU-Sim PTX: Finding immediate dominators for '_Z11hash_deleteP7ielem_sP8bucket_sii'...
GPGPU-Sim PTX: Finding postdominators for '_Z11hash_deleteP7ielem_sP8bucket_sii'...
GPGPU-Sim PTX: Finding immediate postdominators for '_Z11hash_deleteP7ielem_sP8bucket_sii'...
GPGPU-Sim PTX: pre-decoding instructions for '_Z11hash_deleteP7ielem_sP8bucket_sii'...
GPGPU-Sim PTX: reconvergence points for _Z11hash_deleteP7ielem_sP8bucket_sii...
GPGPU-Sim PTX:  1 (potential) branch divergence @  PC=0x980 (run.1.sm_70.ptx:504) @%p4 bra BB5_12;
GPGPU-Sim PTX:    immediate post dominator      @  PC=0xb70 (run.1.sm_70.ptx:583) ret;
GPGPU-Sim PTX:  2 (potential) branch divergence @  PC=0xa20 (run.1.sm_70.ptx:527) @%p6 bra BB5_4;
GPGPU-Sim PTX:    immediate post dominator      @  PC=0xa40 (run.1.sm_70.ptx:534) mov.u32 %r20, -1;
GPGPU-Sim PTX:  3 (potential) branch divergence @  PC=0xa68 (run.1.sm_70.ptx:539) @%p7 bra BB5_7;
GPGPU-Sim PTX:    immediate post dominator      @  PC=0xaa0 (run.1.sm_70.ptx:550) shr.s32 %r26, %r6, %r3;
GPGPU-Sim PTX:  4 (potential) branch divergence @  PC=0xa88 (run.1.sm_70.ptx:544) @%p8 bra BB5_7;
GPGPU-Sim PTX:    immediate post dominator      @  PC=0xaa0 (run.1.sm_70.ptx:550) shr.s32 %r26, %r6, %r3;
GPGPU-Sim PTX:  5 (potential) branch divergence @  PC=0xab8 (run.1.sm_70.ptx:553) @%p9 bra BB5_11;
GPGPU-Sim PTX:    immediate post dominator      @  PC=0xb50 (run.1.sm_70.ptx:577) cvt.u32.u64%r38, %rd4;
GPGPU-Sim PTX:  6 (potential) branch divergence @  PC=0xb18 (run.1.sm_70.ptx:566) @%p10 bra BB5_11;
GPGPU-Sim PTX:    immediate post dominator      @  PC=0xb50 (run.1.sm_70.ptx:577) cvt.u32.u64%r38, %rd4;
GPGPU-Sim PTX:  7 (potential) branch divergence @  PC=0xb38 (run.1.sm_70.ptx:571) @%p11 bra BB5_11;
GPGPU-Sim PTX:    immediate post dominator      @  PC=0xb50 (run.1.sm_70.ptx:577) cvt.u32.u64%r38, %rd4;
GPGPU-Sim PTX:  8 (potential) branch divergence @  PC=0xb68 (run.1.sm_70.ptx:580) @%p12 bra BB5_2;
GPGPU-Sim PTX:    immediate post dominator      @  PC=0xb70 (run.1.sm_70.ptx:583) ret;
GPGPU-Sim PTX: ... end of reconvergence points for _Z11hash_deleteP7ielem_sP8bucket_sii
GPGPU-Sim PTX: ... done pre-decoding instructions for '_Z11hash_deleteP7ielem_sP8bucket_sii'.
GPGPU-Sim PTX: pushing kernel '_Z11hash_deleteP7ielem_sP8bucket_sii' to stream 1, gridDim= (8,1,1) blockDim = (1024,1,1) 
GPGPU-Sim: synchronize waiting for inactive GPU simulation
GPGPU-Sim API: Stream Manager State
GPGPU-Sim API:    stream 1 has 1 operations
GPGPU-Sim API:       0 :  stream operation kernel
GPGPU-Sim uArch: Shader 0 bind to kernel 1 '_Z11hash_deleteP7ielem_sP8bucket_sii'
GPGPU-Sim uArch: CTA/core = 2, limited by: threads
GPGPU-Sim: Reconfigure L1 cache to 128KB
GPGPU-Sim uArch: Shader 1 bind to kernel 1 '_Z11hash_deleteP7ielem_sP8bucket_sii'
GPGPU-Sim uArch: Shader 2 bind to kernel 1 '_Z11hash_deleteP7ielem_sP8bucket_sii'
GPGPU-Sim uArch: Shader 3 bind to kernel 1 '_Z11hash_deleteP7ielem_sP8bucket_sii'
GPGPU-Sim uArch: Shader 4 bind to kernel 1 '_Z11hash_deleteP7ielem_sP8bucket_sii'
GPGPU-Sim uArch: Shader 5 bind to kernel 1 '_Z11hash_deleteP7ielem_sP8bucket_sii'
GPGPU-Sim uArch: Shader 6 bind to kernel 1 '_Z11hash_deleteP7ielem_sP8bucket_sii'
GPGPU-Sim uArch: Shader 7 bind to kernel 1 '_Z11hash_deleteP7ielem_sP8bucket_sii'
Destroy streams for kernel 1: size 0
kernel_name = _Z11hash_deleteP7ielem_sP8bucket_sii 
kernel_launch_uid = 1 
gpu_sim_cycle = 93643
gpu_sim_insn = 15730188
gpu_ipc =     167.9804
gpu_tot_sim_cycle = 93643
gpu_tot_sim_insn = 15730188
gpu_tot_ipc =     167.9804
gpu_tot_issued_cta = 8
gpu_occupancy = 49.1218% 
gpu_tot_occupancy = 49.1218% 
max_total_param_size = 0
gpu_stall_dramfull = 0
gpu_stall_icnt2sh    = 0
partiton_level_parallism =       2.3622
partiton_level_parallism_total  =       2.3622
partiton_level_parallism_util =       2.7110
partiton_level_parallism_util_total  =       2.7110
L2_BW  =      85.5678 GB/Sec
L2_BW_total  =      85.5678 GB/Sec
gpu_total_sim_rate=91454

========= Core cache stats =========
L1I_cache:
	L1I_total_cache_accesses = 0
	L1I_total_cache_misses = 0
	L1I_total_cache_pending_hits = 0
	L1I_total_cache_reservation_fails = 0
L1D_cache:
	L1D_cache_core[0]: Access = 61446, Miss = 20068, Miss_rate = 0.327, Pending_hits = 0, Reservation_fails = 0
	L1D_cache_core[1]: Access = 61447, Miss = 19835, Miss_rate = 0.323, Pending_hits = 0, Reservation_fails = 0
	L1D_cache_core[2]: Access = 61447, Miss = 19766, Miss_rate = 0.322, Pending_hits = 0, Reservation_fails = 0
	L1D_cache_core[3]: Access = 61449, Miss = 19914, Miss_rate = 0.324, Pending_hits = 0, Reservation_fails = 0
	L1D_cache_core[4]: Access = 61444, Miss = 19950, Miss_rate = 0.325, Pending_hits = 0, Reservation_fails = 0
	L1D_cache_core[5]: Access = 61440, Miss = 20018, Miss_rate = 0.326, Pending_hits = 0, Reservation_fails = 0
	L1D_cache_core[6]: Access = 61446, Miss = 19896, Miss_rate = 0.324, Pending_hits = 0, Reservation_fails = 0
	L1D_cache_core[7]: Access = 61449, Miss = 20004, Miss_rate = 0.326, Pending_hits = 0, Reservation_fails = 0
	L1D_cache_core[8]: Access = 0, Miss = 0, Miss_rate = -nan, Pending_hits = 0, Reservation_fails = 0
	L1D_cache_core[9]: Access = 0, Miss = 0, Miss_rate = -nan, Pending_hits = 0, Reservation_fails = 0
	L1D_cache_core[10]: Access = 0, Miss = 0, Miss_rate = -nan, Pending_hits = 0, Reservation_fails = 0
	L1D_cache_core[11]: Access = 0, Miss = 0, Miss_rate = -nan, Pending_hits = 0, Reservation_fails = 0
	L1D_cache_core[12]: Access = 0, Miss = 0, Miss_rate = -nan, Pending_hits = 0, Reservation_fails = 0
	L1D_cache_core[13]: Access = 0, Miss = 0, Miss_rate = -nan, Pending_hits = 0, Reservation_fails = 0
	L1D_cache_core[14]: Access = 0, Miss = 0, Miss_rate = -nan, Pending_hits = 0, Reservation_fails = 0
	L1D_cache_core[15]: Access = 0, Miss = 0, Miss_rate = -nan, Pending_hits = 0, Reservation_fails = 0
	L1D_cache_core[16]: Access = 0, Miss = 0, Miss_rate = -nan, Pending_hits = 0, Reservation_fails = 0
	L1D_cache_core[17]: Access = 0, Miss = 0, Miss_rate = -nan, Pending_hits = 0, Reservation_fails = 0
	L1D_cache_core[18]: Access = 0, Miss = 0, Miss_rate = -nan, Pending_hits = 0, Reservation_fails = 0
	L1D_cache_core[19]: Access = 0, Miss = 0, Miss_rate = -nan, Pending_hits = 0, Reservation_fails = 0
	L1D_cache_core[20]: Access = 0, Miss = 0, Miss_rate = -nan, Pending_hits = 0, Reservation_fails = 0
	L1D_cache_core[21]: Access = 0, Miss = 0, Miss_rate = -nan, Pending_hits = 0, Reservation_fails = 0
	L1D_cache_core[22]: Access = 0, Miss = 0, Miss_rate = -nan, Pending_hits = 0, Reservation_fails = 0
	L1D_cache_core[23]: Access = 0, Miss = 0, Miss_rate = -nan, Pending_hits = 0, Reservation_fails = 0
	L1D_cache_core[24]: Access = 0, Miss = 0, Miss_rate = -nan, Pending_hits = 0, Reservation_fails = 0
	L1D_cache_core[25]: Access = 0, Miss = 0, Miss_rate = -nan, Pending_hits = 0, Reservation_fails = 0
	L1D_cache_core[26]: Access = 0, Miss = 0, Miss_rate = -nan, Pending_hits = 0, Reservation_fails = 0
	L1D_cache_core[27]: Access = 0, Miss = 0, Miss_rate = -nan, Pending_hits = 0, Reservation_fails = 0
	L1D_cache_core[28]: Access = 0, Miss = 0, Miss_rate = -nan, Pending_hits = 0, Reservation_fails = 0
	L1D_cache_core[29]: Access = 0, Miss = 0, Miss_rate = -nan, Pending_hits = 0, Reservation_fails = 0
	L1D_cache_core[30]: Access = 0, Miss = 0, Miss_rate = -nan, Pending_hits = 0, Reservation_fails = 0
	L1D_cache_core[31]: Access = 0, Miss = 0, Miss_rate = -nan, Pending_hits = 0, Reservation_fails = 0
	L1D_cache_core[32]: Access = 0, Miss = 0, Miss_rate = -nan, Pending_hits = 0, Reservation_fails = 0
	L1D_cache_core[33]: Access = 0, Miss = 0, Miss_rate = -nan, Pending_hits = 0, Reservation_fails = 0
	L1D_cache_core[34]: Access = 0, Miss = 0, Miss_rate = -nan, Pending_hits = 0, Reservation_fails = 0
	L1D_cache_core[35]: Access = 0, Miss = 0, Miss_rate = -nan, Pending_hits = 0, Reservation_fails = 0
	L1D_cache_core[36]: Access = 0, Miss = 0, Miss_rate = -nan, Pending_hits = 0, Reservation_fails = 0
	L1D_cache_core[37]: Access = 0, Miss = 0, Miss_rate = -nan, Pending_hits = 0, Reservation_fails = 0
	L1D_cache_core[38]: Access = 0, Miss = 0, Miss_rate = -nan, Pending_hits = 0, Reservation_fails = 0
	L1D_cache_core[39]: Access = 0, Miss = 0, Miss_rate = -nan, Pending_hits = 0, Reservation_fails = 0
	L1D_cache_core[40]: Access = 0, Miss = 0, Miss_rate = -nan, Pending_hits = 0, Reservation_fails = 0
	L1D_cache_core[41]: Access = 0, Miss = 0, Miss_rate = -nan, Pending_hits = 0, Reservation_fails = 0
	L1D_cache_core[42]: Access = 0, Miss = 0, Miss_rate = -nan, Pending_hits = 0, Reservation_fails = 0
	L1D_cache_core[43]: Access = 0, Miss = 0, Miss_rate = -nan, Pending_hits = 0, Reservation_fails = 0
	L1D_cache_core[44]: Access = 0, Miss = 0, Miss_rate = -nan, Pending_hits = 0, Reservation_fails = 0
	L1D_cache_core[45]: Access = 0, Miss = 0, Miss_rate = -nan, Pending_hits = 0, Reservation_fails = 0
	L1D_cache_core[46]: Access = 0, Miss = 0, Miss_rate = -nan, Pending_hits = 0, Reservation_fails = 0
	L1D_cache_core[47]: Access = 0, Miss = 0, Miss_rate = -nan, Pending_hits = 0, Reservation_fails = 0
	L1D_cache_core[48]: Access = 0, Miss = 0, Miss_rate = -nan, Pending_hits = 0, Reservation_fails = 0
	L1D_cache_core[49]: Access = 0, Miss = 0, Miss_rate = -nan, Pending_hits = 0, Reservation_fails = 0
	L1D_cache_core[50]: Access = 0, Miss = 0, Miss_rate = -nan, Pending_hits = 0, Reservation_fails = 0
	L1D_cache_core[51]: Access = 0, Miss = 0, Miss_rate = -nan, Pending_hits = 0, Reservation_fails = 0
	L1D_cache_core[52]: Access = 0, Miss = 0, Miss_rate = -nan, Pending_hits = 0, Reservation_fails = 0
	L1D_cache_core[53]: Access = 0, Miss = 0, Miss_rate = -nan, Pending_hits = 0, Reservation_fails = 0
	L1D_cache_core[54]: Access = 0, Miss = 0, Miss_rate = -nan, Pending_hits = 0, Reservation_fails = 0
	L1D_cache_core[55]: Access = 0, Miss = 0, Miss_rate = -nan, Pending_hits = 0, Reservation_fails = 0
	L1D_cache_core[56]: Access = 0, Miss = 0, Miss_rate = -nan, Pending_hits = 0, Reservation_fails = 0
	L1D_cache_core[57]: Access = 0, Miss = 0, Miss_rate = -nan, Pending_hits = 0, Reservation_fails = 0
	L1D_cache_core[58]: Access = 0, Miss = 0, Miss_rate = -nan, Pending_hits = 0, Reservation_fails = 0
	L1D_cache_core[59]: Access = 0, Miss = 0, Miss_rate = -nan, Pending_hits = 0, Reservation_fails = 0
	L1D_cache_core[60]: Access = 0, Miss = 0, Miss_rate = -nan, Pending_hits = 0, Reservation_fails = 0
	L1D_cache_core[61]: Access = 0, Miss = 0, Miss_rate = -nan, Pending_hits = 0, Reservation_fails = 0
	L1D_cache_core[62]: Access = 0, Miss = 0, Miss_rate = -nan, Pending_hits = 0, Reservation_fails = 0
	L1D_cache_core[63]: Access = 0, Miss = 0, Miss_rate = -nan, Pending_hits = 0, Reservation_fails = 0
	L1D_cache_core[64]: Access = 0, Miss = 0, Miss_rate = -nan, Pending_hits = 0, Reservation_fails = 0
	L1D_cache_core[65]: Access = 0, Miss = 0, Miss_rate = -nan, Pending_hits = 0, Reservation_fails = 0
	L1D_cache_core[66]: Access = 0, Miss = 0, Miss_rate = -nan, Pending_hits = 0, Reservation_fails = 0
	L1D_cache_core[67]: Access = 0, Miss = 0, Miss_rate = -nan, Pending_hits = 0, Reservation_fails = 0
	L1D_cache_core[68]: Access = 0, Miss = 0, Miss_rate = -nan, Pending_hits = 0, Reservation_fails = 0
	L1D_cache_core[69]: Access = 0, Miss = 0, Miss_rate = -nan, Pending_hits = 0, Reservation_fails = 0
	L1D_cache_core[70]: Access = 0, Miss = 0, Miss_rate = -nan, Pending_hits = 0, Reservation_fails = 0
	L1D_cache_core[71]: Access = 0, Miss = 0, Miss_rate = -nan, Pending_hits = 0, Reservation_fails = 0
	L1D_cache_core[72]: Access = 0, Miss = 0, Miss_rate = -nan, Pending_hits = 0, Reservation_fails = 0
	L1D_cache_core[73]: Access = 0, Miss = 0, Miss_rate = -nan, Pending_hits = 0, Reservation_fails = 0
	L1D_cache_core[74]: Access = 0, Miss = 0, Miss_rate = -nan, Pending_hits = 0, Reservation_fails = 0
	L1D_cache_core[75]: Access = 0, Miss = 0, Miss_rate = -nan, Pending_hits = 0, Reservation_fails = 0
	L1D_cache_core[76]: Access = 0, Miss = 0, Miss_rate = -nan, Pending_hits = 0, Reservation_fails = 0
	L1D_cache_core[77]: Access = 0, Miss = 0, Miss_rate = -nan, Pending_hits = 0, Reservation_fails = 0
	L1D_cache_core[78]: Access = 0, Miss = 0, Miss_rate = -nan, Pending_hits = 0, Reservation_fails = 0
	L1D_cache_core[79]: Access = 0, Miss = 0, Miss_rate = -nan, Pending_hits = 0, Reservation_fails = 0
	L1D_total_cache_accesses = 491568
	L1D_total_cache_misses = 159451
	L1D_total_cache_miss_rate = 0.3244
	L1D_total_cache_pending_hits = 0
	L1D_total_cache_reservation_fails = 0
	L1D_cache_data_port_util = 0.475
	L1D_cache_fill_port_util = 0.223
L1C_cache:
	L1C_total_cache_accesses = 0
	L1C_total_cache_misses = 0
	L1C_total_cache_pending_hits = 0
	L1C_total_cache_reservation_fails = 0
L1T_cache:
	L1T_total_cache_accesses = 0
	L1T_total_cache_misses = 0
	L1T_total_cache_pending_hits = 0
	L1T_total_cache_reservation_fails = 0

Total_core_cache_stats:
	Total_core_cache_stats_breakdown[GLOBAL_ACC_R][HIT] = 266581
	Total_core_cache_stats_breakdown[GLOBAL_ACC_R][HIT_RESERVED] = 0
	Total_core_cache_stats_breakdown[GLOBAL_ACC_R][MISS] = 76206
	Total_core_cache_stats_breakdown[GLOBAL_ACC_R][RESERVATION_FAIL] = 0
	Total_core_cache_stats_breakdown[GLOBAL_ACC_R][SECTOR_MISS] = 83245
	Total_core_cache_stats_breakdown[LOCAL_ACC_R][HIT] = 0
	Total_core_cache_stats_breakdown[LOCAL_ACC_R][HIT_RESERVED] = 0
	Total_core_cache_stats_breakdown[LOCAL_ACC_R][MISS] = 0
	Total_core_cache_stats_breakdown[LOCAL_ACC_R][RESERVATION_FAIL] = 0
	Total_core_cache_stats_breakdown[LOCAL_ACC_R][SECTOR_MISS] = 0
	Total_core_cache_stats_breakdown[CONST_ACC_R][HIT] = 0
	Total_core_cache_stats_breakdown[CONST_ACC_R][HIT_RESERVED] = 0
	Total_core_cache_stats_breakdown[CONST_ACC_R][MISS] = 0
	Total_core_cache_stats_breakdown[CONST_ACC_R][RESERVATION_FAIL] = 0
	Total_core_cache_stats_breakdown[CONST_ACC_R][SECTOR_MISS] = 0
	Total_core_cache_stats_breakdown[TEXTURE_ACC_R][HIT] = 0
	Total_core_cache_stats_breakdown[TEXTURE_ACC_R][HIT_RESERVED] = 0
	Total_core_cache_stats_breakdown[TEXTURE_ACC_R][MISS] = 0
	Total_core_cache_stats_breakdown[TEXTURE_ACC_R][RESERVATION_FAIL] = 0
	Total_core_cache_stats_breakdown[TEXTURE_ACC_R][SECTOR_MISS] = 0
	Total_core_cache_stats_breakdown[GLOBAL_ACC_W][HIT] = 65536
	Total_core_cache_stats_breakdown[GLOBAL_ACC_W][HIT_RESERVED] = 0
	Total_core_cache_stats_breakdown[GLOBAL_ACC_W][MISS] = 0
	Total_core_cache_stats_breakdown[GLOBAL_ACC_W][RESERVATION_FAIL] = 0
	Total_core_cache_stats_breakdown[GLOBAL_ACC_W][SECTOR_MISS] = 0
	Total_core_cache_stats_breakdown[LOCAL_ACC_W][HIT] = 0
	Total_core_cache_stats_breakdown[LOCAL_ACC_W][HIT_RESERVED] = 0
	Total_core_cache_stats_breakdown[LOCAL_ACC_W][MISS] = 0
	Total_core_cache_stats_breakdown[LOCAL_ACC_W][RESERVATION_FAIL] = 0
	Total_core_cache_stats_breakdown[LOCAL_ACC_W][SECTOR_MISS] = 0
	Total_core_cache_stats_breakdown[L1_WRBK_ACC][HIT] = 0
	Total_core_cache_stats_breakdown[L1_WRBK_ACC][HIT_RESERVED] = 0
	Total_core_cache_stats_breakdown[L1_WRBK_ACC][MISS] = 0
	Total_core_cache_stats_breakdown[L1_WRBK_ACC][RESERVATION_FAIL] = 0
	Total_core_cache_stats_breakdown[L1_WRBK_ACC][SECTOR_MISS] = 0
	Total_core_cache_stats_breakdown[L2_WRBK_ACC][HIT] = 0
	Total_core_cache_stats_breakdown[L2_WRBK_ACC][HIT_RESERVED] = 0
	Total_core_cache_stats_breakdown[L2_WRBK_ACC][MISS] = 0
	Total_core_cache_stats_breakdown[L2_WRBK_ACC][RESERVATION_FAIL] = 0
	Total_core_cache_stats_breakdown[L2_WRBK_ACC][SECTOR_MISS] = 0
	Total_core_cache_stats_breakdown[INST_ACC_R][HIT] = 0
	Total_core_cache_stats_breakdown[INST_ACC_R][HIT_RESERVED] = 0
	Total_core_cache_stats_breakdown[INST_ACC_R][MISS] = 0
	Total_core_cache_stats_breakdown[INST_ACC_R][RESERVATION_FAIL] = 0
	Total_core_cache_stats_breakdown[INST_ACC_R][SECTOR_MISS] = 0
	Total_core_cache_stats_breakdown[L1_WR_ALLOC_R][HIT] = 0
	Total_core_cache_stats_breakdown[L1_WR_ALLOC_R][HIT_RESERVED] = 0
	Total_core_cache_stats_breakdown[L1_WR_ALLOC_R][MISS] = 0
	Total_core_cache_stats_breakdown[L1_WR_ALLOC_R][RESERVATION_FAIL] = 0
	Total_core_cache_stats_breakdown[L1_WR_ALLOC_R][SECTOR_MISS] = 0
	Total_core_cache_stats_breakdown[L2_WR_ALLOC_R][HIT] = 0
	Total_core_cache_stats_breakdown[L2_WR_ALLOC_R][HIT_RESERVED] = 0
	Total_core_cache_stats_breakdown[L2_WR_ALLOC_R][MISS] = 0
	Total_core_cache_stats_breakdown[L2_WR_ALLOC_R][RESERVATION_FAIL] = 0
	Total_core_cache_stats_breakdown[L2_WR_ALLOC_R][SECTOR_MISS] = 0
	Total_core_cache_stats_breakdown[GLOBAL_ACC_R][TOTAL_ACCESS] = 426032
	Total_core_cache_stats_breakdown[GLOBAL_ACC_W][TOTAL_ACCESS] = 65536

Total_core_cache_fail_stats:
Shader 0 warp_id issue ditsribution:
warp_id:
0, 1, 2, 3, 4, 5, 6, 7, 8, 9, 10, 11, 12, 13, 14, 15, 16, 17, 18, 19, 20, 21, 22, 23, 24, 25, 26, 27, 28, 29, 30, 31, 
distro:
2450, 2450, 2450, 2450, 2450, 2450, 2450, 2450, 2450, 2450, 2450, 2450, 2450, 2450, 2450, 2450, 2450, 2450, 2450, 2450, 2450, 2450, 2450, 2450, 2468, 2450, 2450, 2450, 2450, 2468, 2450, 2450, 
gpgpu_n_tot_thrd_icount = 20080768
gpgpu_n_tot_w_icount = 627524
gpgpu_n_stall_shd_mem = 327620
gpgpu_n_mem_read_local = 0
gpgpu_n_mem_write_local = 0
gpgpu_n_mem_read_global = 155666
gpgpu_n_mem_write_global = 65536
gpgpu_n_mem_texture = 0
gpgpu_n_mem_const = 0
gpgpu_n_load_insn  = 2883980
gpgpu_n_store_insn = 65536
gpgpu_n_shmem_insn = 0
gpgpu_n_sstarr_insn = 0
gpgpu_n_tex_insn = 0
gpgpu_n_const_mem_insn = 0
gpgpu_n_param_mem_insn = 32768
gpgpu_n_shmem_bkconflict = 0
gpgpu_n_cache_bkconflict = 0
gpgpu_n_intrawarp_mshr_merge = 0
gpgpu_n_cmem_portconflict = 0
gpgpu_stall_shd_mem[c_mem][resource_stall] = 0
gpgpu_stall_shd_mem[s_mem][bk_conf] = 0
gpgpu_stall_shd_mem[gl_mem][resource_stall] = 327620
gpgpu_stall_shd_mem[gl_mem][coal_stall] = 0
gpgpu_stall_shd_mem[gl_mem][data_port_stall] = 0
gpu_reg_bank_conflict_stalls = 0
Warp Occupancy Distribution:
Stall:26553	W0_Idle:19705	W0_Scoreboard:2122666	W1:108	W2:0	W3:162	W4:147294	W5:0	W6:0	W7:0	W8:216	W9:0	W10:0	W11:0	W12:0	W13:0	W14:0	W15:0	W16:0	W17:0	W18:0	W19:0	W20:0	W21:0	W22:0	W23:0	W24:0	W25:0	W26:0	W27:0	W28:0	W29:0	W30:0	W31:0	W32:479744
single_issue_nums: WS0:156872	WS1:156854	WS2:156890	WS3:156908	
dual_issue_nums: WS0:0	WS1:0	WS2:0	WS3:0	
traffic_breakdown_coretomem[GLOBAL_ACC_R] = 1245328 {8:155666,}
traffic_breakdown_coretomem[GLOBAL_ACC_W] = 2621440 {40:65536,}
traffic_breakdown_memtocore[GLOBAL_ACC_R] = 6226640 {40:155666,}
traffic_breakdown_memtocore[GLOBAL_ACC_W] = 524288 {8:65536,}
maxmflatency = 676 
max_icnt2mem_latency = 26 
maxmrqlatency = 273 
max_icnt2sh_latency = 22 
averagemflatency = 317 
avg_icnt2mem_latency = 23 
avg_mrq_latency = 6 
avg_icnt2sh_latency = 2 
mrq_lat_table:84127 	49797 	1891 	3521 	7400 	8857 	2719 	263 	3 	0 	0 	0 	0 	0 	0 	0 	0 	0 	0 	0 	0 	0 	0 	0 	0 	0 	0 	0 	0 	0 	0 	0 	
dq_lat_table:0 	0 	0 	0 	0 	0 	0 	0 	0 	0 	0 	0 	0 	0 	0 	0 	0 	0 	0 	0 	0 	0 	0 	0 	0 	0 	0 	0 	0 	0 	0 	0 	
mf_lat_table:0 	0 	0 	0 	0 	0 	0 	83083 	137709 	410 	0 	0 	0 	0 	0 	0 	0 	0 	0 	0 	0 	0 	0 	0 	0 	0 	0 	0 	0 	0 	0 	0 	
icnt2mem_lat_table:0 	0 	0 	0 	221202 	0 	0 	0 	0 	0 	0 	0 	0 	0 	0 	0 	0 	0 	0 	0 	0 	0 	0 	0 	
icnt2sh_lat_table:0 	193112 	26629 	1452 	9 	0 	0 	0 	0 	0 	0 	0 	0 	0 	0 	0 	0 	0 	0 	0 	0 	0 	0 	0 	
mf_lat_pw_table:0 	0 	0 	0 	0 	0 	0 	4 	173 	0 	0 	0 	0 	0 	0 	0 	0 	0 	0 	0 	0 	0 	0 	0 	0 	0 	0 	0 	0 	0 	0 	0 	
maximum concurrent accesses to same row:
dram[0]:         2         2         2         2         2         2         6         8         8         8         5         5         2         2         2         2 
dram[1]:         2         2         2         2         2         2        10         4         5         7         6         7         4         2         2         4 
dram[2]:         3         2         2         2         2         4         3         6         7         7        10         6         2         2         2         4 
dram[3]:         2         2         2         2         2         2         3         8         5         5         6         7         2         2         2         4 
dram[4]:         2         2         3         2         2         2         3         4         7         4         6         6         2         2         2         2 
dram[5]:         2         2         2         2         6         3         4         5         5         7         6         5         2         2         2         2 
dram[6]:         2         2         2         2         2         2         4         3         4         8         8         5         2         2         2         2 
dram[7]:         3         3         2         2         2         3         3         4         4         6         7         7         2         2         2         2 
dram[8]:         2         2         2         2         2         2         3         4         6         6         5         4         2         2         3         2 
dram[9]:         2         2         2         2         2         2         4         4         4         6        11         7         2         4         2         2 
dram[10]:         2         2         2         2         2         2         5        12         6         7         5        13         2         2         2         2 
dram[11]:         2         2         2         2         2         4         4         7         8         7         6         7         2         2         2         2 
dram[12]:         2         2         2         2         2         2         4         6         5         6         9         7         2         3         2         2 
dram[13]:         2         2         2         2         2         2         6         4         4         6         5         8         2         2         2         2 
dram[14]:         2         2         4         2         2         2         5         5        12         8         7         7         2         2         2         4 
dram[15]:         2         2         2         2         2         2         4         4         8         7         8         9         2         2         2         2 
dram[16]:         2         2         2         2         2         2         3         4         6        10         9         8         2         2         2         2 
dram[17]:         3         2         3         2         2         2         3         3         4         7         7         6         2         2         2         4 
dram[18]:         2         2         2         2         2         3         4         5         9         8         8         7         2         3         2         2 
dram[19]:         2         3         2         2         2         2         6         2         4         5         8         9         2         2         2         2 
dram[20]:         2         2         2         2         2         2         6         6         4        10         5         7         2         2         2         2 
dram[21]:         2         2         3         2         2         2         4         4         8        10         8        11         2         2         3         2 
dram[22]:         2         2         2         2         4         4         5         3         4         5         7         7         2         2         2         2 
dram[23]:         2         2         2         2         2         4         3         4         9         5         8        12         2         2         2         2 
dram[24]:         2         2         2         2         2         2         4         8        11         5         8         6         2         2         2         3 
dram[25]:         2         2         2         2         4         3         4         8         5         8         6        11         2         2         2         2 
dram[26]:         4         2         2         2         4         2         4         6         6         7         9         4         3         2         2         2 
dram[27]:         2         2         2         3         3         2         4         4         6         7         6         7         2         2         2         3 
dram[28]:         2         2         2         2         2         4         4         4         8         6         6        12         2         2         2         2 
dram[29]:         2         2         2         2         2         2         5         4         7         4         8        11         2         2         2         2 
dram[30]:         2         2         2         2         2         2         3         4         7         8         5        10         2         2         2         3 
dram[31]:         2         2         2         2         2         2         4         6         7        10        12         9         2         2         2         2 
maximum service time to same row:
dram[0]:      5818      5811      5798      5815      5864      5819      5951      5812      5795      5850      5788      5787      7422      5800      5838      5831 
dram[1]:      5927      5826      5779      5788      5831      5823      5859      5832      5808      7449      5870      7217      5790      5834      5838      7386 
dram[2]:      5854      5943      7203      5870      5815      5931      5787      5923      5961      5838      5804      5800      5807      5796      7445      7365 
dram[3]:      5796      7400      7343      5827      5863      5859      7055      5788      5811      5808      5867      7181      5804      5876      5826      9756 
dram[4]:      5826      5811      5875      5815      5945      5835      7109      5860      5788      5880      5930      5944      5822      5831      5804      5867 
dram[5]:      5831      5963      5804      7023      5835      5779      5928      5850      5862      5854      5796      5822      5943      5856      5838      5874 
dram[6]:      5875      5945      5957      7042      5858      7215      5879      5783      5903      5878      5964      5810      5803      5955      5890      5782 
dram[7]:      5866      5927      7112      5931      5932      7344      5854      5859      5780      5826      7157      5790      7137      5862      5782      7413 
dram[8]:      5818      5903      5831      5826      5895      5806      5788      5855      7252      5875      5927      5854      5804      5822      5838      5867 
dram[9]:      5788      5822      5795      7181      7351      5959      5826      5823      7307      5804      7442      5807      5914      5867      5798      5818 
dram[10]:      5808      5795      5957      5800      5899      8810      5834      5898      5855      5782      5815      5876      5906      5874      5943      5827 
dram[11]:      5810      7145      5862      5811      5815      5851      5834      5855      5783      5807      5796      5780      5782      5812      5870      7113 
dram[12]:      5927      5804      5838      5903      5960      7304      5938      5858      5894      5810      5808     10949      5811      5907      5779      7418 
dram[13]:      5796      5863      5815      5804      5851      5931      5807      5964      5800      5808      5819      5835      5862      5798      5802      5870 
dram[14]:      5875      7074      5922      5826      5814      5862      5830      5850      5827      5818      5928      7288      5796      5890      5927      5911 
dram[15]:      5824      5803      5822      5823      5790      5887      7473      5826      5795      5807      5874      5782      5899      5779      5791      5811 
dram[16]:      5955      5806      5812      5819      5807      5874      5788      5878      5804      5808      5790      8733      5823      5834      5871      5796 
dram[17]:      5811      7089      5862      5939      5879      7446      5899      7324      5922      5822      5863      7153      5818      5866      5795      5835 
dram[18]:      5835      5796      5827      5894      5947      7079      5836      5902      5895      5811      5803      5855      5957      7201      5858      7426 
dram[19]:      5938      7525      5788      5878      5894      5912      5859      5780      7051      5800      8497      5961      5822      5790      5806      5890 
dram[20]:      5854      7453      5808      5815      5807      5834      5811      5951      5788      5802      5790      5855      5806      7406      5835      5899 
dram[21]:      5911      5815      5838      5851      5863      5939      5839      5830      5807      5906      7347      5780      5806      7058      7283      5871 
dram[22]:      5839      5808      5788      5783      5811      5832      5850      5871      5911      5923      5867      5780      5838      5831      5795      7247 
dram[23]:      5808      5787      5850      5824      7256      5802      5867      5855      5964      7089      5961      5823      5827      5836      5780      5851 
dram[24]:      5800      5854      5834      5924      5806      5827      7444      5802      5779      5807      5894      5948      5895      5804      5931      5803 
dram[25]:      5811      5787      5930      5818      5862      5827      7153      5804      5938      5779      5888      5780      5810      5854      7311      7088 
dram[26]:      5822      5862      5931      5938      5827      5871      5863      5851      5907      5798      5870      5782      5780      5803      5787      5887 
dram[27]:      5927      5859      5811      5780      5796      5815      5810      5834      5823      5890      5826      8273      7450      5899      5790      5802 
dram[28]:      5788      5795      5858      5859      5932      5951      5815      5875      5798      7426      5876      5894      5870      5818      5940      5955 
dram[29]:      5826      5796      5831      5839      5780      5815      5788      5875      7101      5818      5957      5912      5835      5828      5787      5808 
dram[30]:      5798      5788      5807      5874      5851      5850      7273      5855      5800      7508      5835      5930      5867      5834      5822      5799 
dram[31]:      5780      5858      5810      5855      5800      5872      5798      5879      5806      5811      5863      5790      5783      5782      5870      5787 
average row accesses per activate:
dram[0]:  1.097473  1.077703  1.120000  1.096154  1.111511  1.113208  1.143333  1.142857  1.218750  1.220472  1.193443  1.251908  1.062112  1.097222  1.118182  1.131455 
dram[1]:  1.063830  1.150000  1.072727  1.096552  1.100000  1.079310  1.167382  1.118750  1.133987  1.175084  1.170029  1.234201  1.097826  1.102881  1.164319  1.115385 
dram[2]:  1.100402  1.120536  1.073718  1.087108  1.137339  1.125000  1.130081  1.123077  1.161870  1.167260  1.233716  1.146199  1.098214  1.138528  1.082474  1.098246 
dram[3]:  1.119048  1.082143  1.097015  1.085271  1.077703  1.089552  1.095385  1.148289  1.183824  1.154341  1.197452  1.184953  1.125581  1.120968  1.134387  1.118774 
dram[4]:  1.131274  1.111511  1.128099  1.131707  1.120000  1.144105  1.109091  1.146789  1.144695  1.191057  1.227586  1.221739  1.133891  1.121212  1.135965  1.120301 
dram[5]:  1.089744  1.094203  1.070122  1.072202  1.073746  1.123134  1.125448  1.156934  1.212903  1.201413  1.169492  1.316872  1.106164  1.065217  1.096085  1.127854 
dram[6]:  1.125000  1.054054  1.089347  1.109091  1.079861  1.187500  1.136213  1.135135  1.155462  1.162079  1.247104  1.180064  1.123404  1.072727  1.096774  1.100358 
dram[7]:  1.129555  1.135593  1.106227  1.123188  1.087413  1.120968  1.162162  1.089552  1.153846  1.160000  1.246269  1.296000  1.153509  1.111524  1.095745  1.128319 
dram[8]:  1.100372  1.104377  1.127660  1.122047  1.118518  1.063604  1.115646  1.161943  1.172794  1.204301  1.147632  1.253968  1.087248  1.120332  1.133333  1.079422 
dram[9]:  1.095588  1.113402  1.082474  1.094890  1.083333  1.165854  1.115385  1.108911  1.176030  1.130699  1.199357  1.202749  1.113879  1.134545  1.139640  1.101562 
dram[10]:  1.074830  1.116541  1.096296  1.066667  1.069307  1.084211  1.223301  1.142857  1.151943  1.204545  1.171821  1.217391  1.136170  1.111111  1.092664  1.112727 
dram[11]:  1.117391  1.058419  1.096234  1.098425  1.121864  1.069079  1.212871  1.165323  1.176056  1.192308  1.191419  1.295154  1.109375  1.113139  1.136000  1.125523 
dram[12]:  1.097826  1.099315  1.083916  1.137615  1.097902  1.142322  1.140625  1.150183  1.126888  1.131148  1.211073  1.255906  1.079114  1.105455  1.092527  1.131222 
dram[13]:  1.115672  1.158140  1.092308  1.159664  1.127413  1.135965  1.172131  1.155844  1.174051  1.180392  1.172727  1.199336  1.093103  1.111111  1.068259  1.072243 
dram[14]:  1.095238  1.119522  1.117021  1.106996  1.112000  1.091912  1.120521  1.238095  1.225681  1.155963  1.157191  1.195946  1.085809  1.106481  1.087121  1.090909 
dram[15]:  1.134752  1.133621  1.070671  1.146018  1.078370  1.103053  1.093750  1.134100  1.279412  1.228571  1.285141  1.192429  1.148438  1.106870  1.112450  1.095057 
dram[16]:  1.095057  1.092466  1.078498  1.099567  1.096154  1.061151  1.091177  1.103704  1.189003  1.190184  1.228873  1.202532  1.087108  1.093863  1.087273  1.092742 
dram[17]:  1.115880  1.067524  1.141593  1.092050  1.083612  1.122605  1.116000  1.116667  1.189964  1.167224  1.204778  1.181303  1.076087  1.080386  1.102459  1.103976 
dram[18]:  1.106481  1.089655  1.112000  1.119149  1.125984  1.097015  1.111554  1.200873  1.201550  1.190813  1.220280  1.209836  1.107438  1.117647  1.089888  1.088889 
dram[19]:  1.104651  1.137778  1.160870  1.129032  1.069536  1.161572  1.156134  1.109091  1.173611  1.176101  1.216393  1.215827  1.050000  1.097315  1.110320  1.192708 
dram[20]:  1.075758  1.103571  1.155660  1.106061  1.104089  1.094737  1.143382  1.148000  1.169550  1.309091  1.232727  1.251799  1.108333  1.088235  1.072607  1.119565 
dram[21]:  1.145631  1.082474  1.127273  1.097643  1.098182  1.113208  1.074303  1.168350  1.221402  1.213768  1.219512  1.229452  1.080769  1.150215  1.134831  1.113793 
dram[22]:  1.105882  1.104418  1.132296  1.093426  1.091743  1.082019  1.146429  1.093939  1.181538  1.183391  1.232143  1.270588  1.067340  1.086792  1.108000  1.106870 
dram[23]:  1.122530  1.107639  1.084388  1.068182  1.103321  1.181818  1.076412  1.120438  1.180077  1.191837  1.187302  1.262774  1.083086  1.132812  1.072165  1.081181 
dram[24]:  1.071174  1.044872  1.116541  1.129555  1.124424  1.156379  1.154867  1.182186  1.209877  1.163763  1.304167  1.203571  1.114754  1.088028  1.100671  1.107639 
dram[25]:  1.109312  1.106557  1.160000  1.120000  1.143969  1.123595  1.105263  1.148148  1.166667  1.193133  1.192547  1.205970  1.087379  1.102273  1.135371  1.076364 
dram[26]:  1.166667  1.102990  1.083942  1.125000  1.107807  1.102767  1.111969  1.101156  1.167939  1.194805  1.255061  1.170492  1.124514  1.081560  1.118774  1.117845 
dram[27]:  1.095395  1.108209  1.128440  1.073718  1.110345  1.129707  1.100000  1.105455  1.163265  1.168539  1.134111  1.267176  1.117925  1.087302  1.090278  1.084249 
dram[28]:  1.119048  1.135246  1.131687  1.103321  1.082803  1.155844  1.106227  1.133333  1.254902  1.203571  1.161017  1.199346  1.082822  1.119718  1.095563  1.076271 
dram[29]:  1.099379  1.097744  1.094406  1.122172  1.104000  1.083612  1.127660  1.111913  1.233333  1.177536  1.193443  1.257353  1.076364  1.089965  1.118110  1.085409 
dram[30]:  1.101887  1.085106  1.052023  1.111111  1.106061  1.103093  1.124542  1.089783  1.176871  1.218391  1.193939  1.200637  1.098305  1.081325  1.073944  1.083969 
dram[31]:  1.094890  1.064057  1.083045  1.079137  1.120301  1.095420  1.126761  1.164835  1.170807  1.217228  1.209150  1.267399  1.120996  1.098182  1.096000  1.108787 
average row locality = 158578/140082 = 1.132037
number of total memory accesses made:
dram[0]:         0         0         0         0         0         0         0         0         0         0         0         0         0         0         0         0 
dram[1]:         0         0         0         0         0         0         0         0         0         0         0         0         0         0         0         0 
dram[2]:         0         0         0         0         0         0         0         0         0         0         0         0         0         0         0         0 
dram[3]:         0         0         0         0         0         0         0         0         0         0         0         0         0         0         0         0 
dram[4]:         0         0         0         0         0         0         0         0         0         0         0         0         0         0         0         0 
dram[5]:         0         0         0         0         0         0         0         0         0         0         0         0         0         0         0         0 
dram[6]:         0         0         0         0         0         0         0         0         0         0         0         0         0         0         0         0 
dram[7]:         0         0         0         0         0         0         0         0         0         0         0         0         0         0         0         0 
dram[8]:         0         0         0         0         0         0         0         0         0         0         0         0         0         0         0         0 
dram[9]:         0         0         0         0         0         0         0         0         0         0         0         0         0         0         0         0 
dram[10]:         0         0         0         0         0         0         0         0         0         0         0         0         0         0         0         0 
dram[11]:         0         0         0         0         0         0         0         0         0         0         0         0         0         0         0         0 
dram[12]:         0         0         0         0         0         0         0         0         0         0         0         0         0         0         0         0 
dram[13]:         0         0         0         0         0         0         0         0         0         0         0         0         0         0         0         0 
dram[14]:         0         0         0         0         0         0         0         0         0         0         0         0         0         0         0         0 
dram[15]:         0         0         0         0         0         0         0         0         0         0         0         0         0         0         0         0 
dram[16]:         0         0         0         0         0         0         0         0         0         0         0         0         0         0         0         0 
dram[17]:         0         0         0         0         0         0         0         0         0         0         0         0         0         0         0         0 
dram[18]:         0         0         0         0         0         0         0         0         0         0         0         0         0         0         0         0 
dram[19]:         0         0         0         0         0         0         0         0         0         0         0         0         0         0         0         0 
dram[20]:         0         0         0         0         0         0         0         0         0         0         0         0         0         0         0         0 
dram[21]:         0         0         0         0         0         0         0         0         0         0         0         0         0         0         0         0 
dram[22]:         0         0         0         0         0         0         0         0         0         0         0         0         0         0         0         0 
dram[23]:         0         0         0         0         0         0         0         0         0         0         0         0         0         0         0         0 
dram[24]:         0         0         0         0         0         0         0         0         0         0         0         0         0         0         0         0 
dram[25]:         0         0         0         0         0         0         0         0         0         0         0         0         0         0         0         0 
dram[26]:         0         0         0         0         0         0         0         0         0         0         0         0         0         0         0         0 
dram[27]:         0         0         0         0         0         0         0         0         0         0         0         0         0         0         0         0 
dram[28]:         0         0         0         0         0         0         0         0         0         0         0         0         0         0         0         0 
dram[29]:         0         0         0         0         0         0         0         0         0         0         0         0         0         0         0         0 
dram[30]:         0         0         0         0         0         0         0         0         0         0         0         0         0         0         0         0 
dram[31]:         0         0         0         0         0         0         0         0         0         0         0         0         0         0         0         0 
total accesses: 0
min_bank_accesses = 0!
min_chip_accesses = 0!
number of total read accesses:
dram[0]:       262       278       218       298       272       254       300       298       280       270       318       296       292       276       214       202 
dram[1]:       304       256       254       270       266       264       232       310       300       308       356       294       266       228       218       280 
dram[2]:       240       214       286       270       228       238       248       312       288       292       284       342       322       230       264       260 
dram[3]:       236       264       256       236       270       252       316       266       284       314       336       334       208       242       252       252 
dram[4]:       260       280       240       204       244       230       262       228       316       266       316       252       232       228       230       260 
dram[5]:       286       262       298       256       302       264       272       284       330       300       358       282       282       288       254       216 
dram[6]:       242       274       276       216       266       226       306       224       238       326       286       320       234       308       238       266 
dram[7]:       238       236       266       274       272       240       270       256       262       308       294       286       228       266       270       220 
dram[8]:       252       286       276       246       260       262       284       252       280       300       354       284       284       236       242       258 
dram[9]:       256       278       268       262       292       210       278       292       274       318       336       314       268       262       218       244 
dram[10]:       270       254       262       296       282       272       222       270       284       280       308       298       230       250       244       250 
dram[11]:       228       264       228       244       274       278       214       260       304       298       318       258       242       266       250       236 
dram[12]:       264       276       260       222       268       262       254       276       332       312       306       286       294       260       260       212 
dram[13]:       260       222       246       242       250       234       248       236       328       266       338       326       270       252       274       248 
dram[14]:       258       244       278       234       240       250       296       258       280       336       304       326       284       204       242       246 
dram[15]:       282       234       250       226       294       250       268       260       306       316       292       342       258       240       240       242 
dram[16]:       252       276       270       220       240       258       324       266       308       342       300       329       270       262       256       230 
dram[17]:       226       284       232       222       276       258       242       286       294       306       314       360       258       286       238       300 
dram[18]:       204       268       248       228       252       248       246       244       276       298       316       336       236       244       256       262 
dram[19]:       248       228       232       214       278       232       272       270       300       330       328       304       262       284       276       202 
dram[20]:       254       272       208       246       258       274       274       258       296       260       310       302       228       252       282       270 
dram[21]:       204       264       270       282       266       244       300       306       298       288       312       320       236       238       260       280 
dram[22]:       242       240       248       272       304       294       276       314       336       300       306       296       280       242       238       246 
dram[23]:       244       274       224       282       260       244       288       270       268       251       336       316       304       248       264       256 
dram[24]:       266       286       256       246       216       244       236       250       268       288       276       298       236       268       286       274 
dram[25]:       238       240       248       272       256       258       296       270       296       246       340       358       292       246       224       252 
dram[26]:       224       282       258       248       258       236       246       332       274       314       284       318       258       266       254       282 
dram[27]:       284       256       216       288       280       238       290       270       308       278       334       300       204       234       268       248 
dram[28]:       244       240       238       250       292       232       262       254       286       296       348       326       302       280       278       324 
dram[29]:       304       248       274       222       240       280       278       264       294       290       314       306       248       276       250       258 
dram[30]:       252       257       312       262       250       278       262       308       300       274       340       332       282       304       260       244 
dram[31]:       256       262       272       262       262       242       274       276       330       290       322       312       272       260       230       230 
total dram reads = 138113
bank skew: 360/202 = 1.78
chip skew: 4534/4048 = 1.12
number of total write accesses:
dram[0]:        42        41        34        44        37        41        43        46        32        40        46        32        50        40        32        39 
dram[1]:        46        43        41        48        42        49        40        48        47        41        50        38        37        40        30        39 
dram[2]:        34        37        49        42        37        32        30        53        35        36        38        50        48        33        51        53 
dram[3]:        46        39        38        44        49        40        40        36        38        45        40        44        34        36        36        40 
dram[4]:        33        29        33        28        36        32        43        22        41        27        40        29        39        31        29        38 
dram[5]:        54        40        55        41        62        37        42        33        47        40        56        38        41        55        54        31 
dram[6]:        28        38        41        28        45        40        36        28        37        54        37        47        30        46        34        41 
dram[7]:        41        32        36        36        39        38        31        36        39        40        40        38        35        33        39        35 
dram[8]:        44        42        42        39        42        39        44        35        39        36        58        32        40        35        47        41 
dram[9]:        42        46        47        38        46        29        41        44        40        54        38        36        45        50        35        38 
dram[10]:        46        43        34        40        42        37        30        42        42        38        33        38        37        30        39        56 
dram[11]:        29        44        34        35        39        47        31        29        30        43        43        36        42        39        34        33 
dram[12]:        39        45        50        26        46        43        38        38        41        33        44        33        47        44        47        38 
dram[13]:        39        27        39        34        42        25        38        31        44        36        49        35        47        38        39        34 
dram[14]:        41        37        37        35        38        48        48        28        35        42        42        29        45        35        45        42 
dram[15]:        38        29        53        33        50        39        47        36        42        28        28        36        36        50        37        46 
dram[16]:        36        43        46        34        45        37        47        32        38        46        49        51        42        41        43        41 
dram[17]:        34        48        26        39        48        35        37        49        39        43        39        57        39        50        31        62 
dram[18]:        35        48        30        35        34        46        33        31        34        39        33        33        32        41        35        32 
dram[19]:        37        28        35        31        46        34        39        35        38        44        43        34        53        43        36        27 
dram[20]:        30        37        37        46        39        38        37        29        42        28        29        46        38        44        43        39 
dram[21]:        32        51        40        44        36        51        47        41        33        47        38        39        45        30        43        43 
dram[22]:        40        35        43        44        53        49        45        47        48        42        40        28        37        46        39        44 
dram[23]:        40        45        33        47        39        29        36        37        40        41        38        30        61        42        48        37 
dram[24]:        35        40        41        33        28        37        25        42        26        46        37        39        36        41        42        45 
dram[25]:        36        30        42        36        38        42        40        40        47        32        44        46        44        45        36        44 
dram[26]:        35        50        39        40        40        43        42        49        32        54        26        39        31        39        38        50 
dram[27]:        49        41        30        47        42        32        51        34        34        34        55        32        33        40        46        49 
dram[28]:        38        37        37        49        48        35        40        35        34        41        63        41        51        38        43        57 
dram[29]:        50        44        39        26        36        44        40        44        39        35        50        36        48        39        34        47 
dram[30]:        40        49        52        48        42        43        45        44        46        44        54        45        42        55        45        40 
[...]
n_pre = 4391 
n_ref = 0 
n_req = 4944 
total_req = 4945 

Dual Bus Interface Util: 
issued_total_row = 8798 
issued_total_col = 4945 
Row_Bus_Util =  0.125123 
CoL_Bus_Util = 0.070326 
Either_Row_CoL_Bus_Util = 0.187897 
Issued_on_Two_Bus_Simul_Util = 0.007552 
issued_two_Eff = 0.040191 
queue_avg = 0.298158 


dram_util_bins: 0 0 0 0 0 0 0 0 0 0
dram_eff_bins: 0 0 0 0 0 0 0 0 0 0
mrqq: max=8 avg=0.298158
Memory Partition 28: 
Cache L2_bank_056:
MSHR contents

Cache L2_bank_057:
MSHR contents

In Dram Latency Queue (total = 0): 
DRAM[28]: 16 bks, busW=16 BL=2 CL=12, tRRD=3 tCCD=1, tRCD=12 tRAS=28 tRP=12 tRC=40
n_cmd=70315 n_nop=56696 n_act=4535 n_pre=4519 n_ref_event=0 n_req=5139 n_rd=4452 n_rd_L2_A=0 n_write=0 n_wr_bk=687 bw_util=0.07309
n_activity=61853 dram_eff=0.08308
bk0: 244a 63020i bk1: 240a 63304i bk2: 238a 63289i bk3: 250a 62311i bk4: 292a 60910i bk5: 232a 63645i bk6: 262a 62311i bk7: 254a 63217i bk8: 286a 63045i bk9: 296a 61988i bk10: 348a 59444i bk11: 326a 61267i bk12: 302a 60872i bk13: 280a 61998i bk14: 278a 61538i bk15: 324a 59761i 

------------------------------------------------------------------------

Row_Buffer_Locality = 0.117533
Row_Buffer_Locality_read = 0.135669
Row_Buffer_Locality_write = 0.000000
Bank_Level_Parallism = 2.524725
Bank_Level_Parallism_Col = 1.637394
Bank_Level_Parallism_Ready = 1.094766
write_to_read_ratio_blp_rw_average = 0.207215
GrpLevelPara = 1.451972 

BW Util details:
bwutil = 0.073085 
total_CMD = 70315 
util_bw = 5139 
Wasted_Col = 35195 
Wasted_Row = 14428 
Idle = 15553 

BW Util Bottlenecks: 
RCDc_limit = 42540 
RCDWRc_limit = 5638 
WTRc_limit = 2743 
RTWc_limit = 11302 
CCDLc_limit = 1319 
rwq = 0 
CCDLc_limit_alone = 838 
WTRc_limit_alone = 2632 
RTWc_limit_alone = 10932 

Commands details: 
total_CMD = 70315 
n_nop = 56696 
Read = 4452 
Write = 0 
L2_Alloc = 0 
L2_WB = 687 
n_act = 4535 
n_pre = 4519 
n_ref = 0 
n_req = 5139 
total_req = 5139 

Dual Bus Interface Util: 
issued_total_row = 9054 
issued_total_col = 5139 
Row_Bus_Util =  0.128763 
CoL_Bus_Util = 0.073085 
Either_Row_CoL_Bus_Util = 0.193686 
Issued_on_Two_Bus_Simul_Util = 0.008163 
issued_two_Eff = 0.042147 
queue_avg = 0.275105 


dram_util_bins: 0 0 0 0 0 0 0 0 0 0
dram_eff_bins: 0 0 0 0 0 0 0 0 0 0
mrqq: max=6 avg=0.275105
Memory Partition 29: 
Cache L2_bank_058:
MSHR contents

Cache L2_bank_059:
MSHR contents

In Dram Latency Queue (total = 0): 
DRAM[29]: 16 bks, busW=16 BL=2 CL=12, tRRD=3 tCCD=1, tRCD=12 tRAS=28 tRP=12 tRC=40
n_cmd=70315 n_nop=57005 n_act=4425 n_pre=4409 n_ref_event=0 n_req=4997 n_rd=4346 n_rd_L2_A=0 n_write=0 n_wr_bk=651 bw_util=0.07107
n_activity=61501 dram_eff=0.08125
bk0: 304a 60744i bk1: 248a 62270i bk2: 274a 62079i bk3: 222a 64016i bk4: 240a 63226i bk5: 280a 61753i bk6: 278a 62039i bk7: 264a 62386i bk8: 294a 62662i bk9: 290a 62396i bk10: 314a 60875i bk11: 306a 62487i bk12: 248a 62384i bk13: 276a 61957i bk14: 250a 62984i bk15: 258a 62098i 

------------------------------------------------------------------------

Row_Buffer_Locality = 0.114469
Row_Buffer_Locality_read = 0.131615
Row_Buffer_Locality_write = 0.000000
Bank_Level_Parallism = 2.469857
Bank_Level_Parallism_Col = 1.586193
Bank_Level_Parallism_Ready = 1.078047
write_to_read_ratio_blp_rw_average = 0.190835
GrpLevelPara = 1.418421 

BW Util details:
bwutil = 0.071066 
total_CMD = 70315 
util_bw = 4997 
Wasted_Col = 34776 
Wasted_Row = 14352 
Idle = 16190 

BW Util Bottlenecks: 
RCDc_limit = 41825 
RCDWRc_limit = 5326 
WTRc_limit = 2719 
RTWc_limit = 9686 
CCDLc_limit = 1245 
rwq = 0 
CCDLc_limit_alone = 815 
WTRc_limit_alone = 2591 
RTWc_limit_alone = 9384 

Commands details: 
total_CMD = 70315 
n_nop = 57005 
Read = 4346 
Write = 0 
L2_Alloc = 0 
L2_WB = 651 
n_act = 4425 
n_pre = 4409 
n_ref = 0 
n_req = 4997 
total_req = 4997 

Dual Bus Interface Util: 
issued_total_row = 8834 
issued_total_col = 4997 
Row_Bus_Util =  0.125635 
CoL_Bus_Util = 0.071066 
Either_Row_CoL_Bus_Util = 0.189291 
Issued_on_Two_Bus_Simul_Util = 0.007410 
issued_two_Eff = 0.039144 
queue_avg = 0.272801 


dram_util_bins: 0 0 0 0 0 0 0 0 0 0
dram_eff_bins: 0 0 0 0 0 0 0 0 0 0
mrqq: max=8 avg=0.272801
Memory Partition 30: 
Cache L2_bank_060:
MSHR contents

Cache L2_bank_061:
MSHR contents

In Dram Latency Queue (total = 0): 
DRAM[30]: 16 bks, busW=16 BL=2 CL=12, tRRD=3 tCCD=1, tRCD=12 tRAS=28 tRP=12 tRC=40
n_cmd=70315 n_nop=56345 n_act=4695 n_pre=4679 n_ref_event=0 n_req=5251 n_rd=4517 n_rd_L2_A=0 n_write=0 n_wr_bk=734 bw_util=0.07468
n_activity=62000 dram_eff=0.08469
bk0: 252a 62702i bk1: 257a 61902i bk2: 312a 59931i bk3: 262a 61927i bk4: 250a 62426i bk5: 278a 61851i bk6: 262a 62373i bk7: 308a 60900i bk8: 300a 61562i bk9: 274a 62556i bk10: 340a 60551i bk11: 332a 60896i bk12: 282a 61721i bk13: 304a 60313i bk14: 260a 62025i bk15: 244a 62668i 

------------------------------------------------------------------------

Row_Buffer_Locality = 0.105885
Row_Buffer_Locality_read = 0.122648
Row_Buffer_Locality_write = 0.002725
Bank_Level_Parallism = 2.610683
Bank_Level_Parallism_Col = 1.661515
Bank_Level_Parallism_Ready = 1.094839
write_to_read_ratio_blp_rw_average = 0.202071
GrpLevelPara = 1.463276 

BW Util details:
bwutil = 0.074678 
total_CMD = 70315 
util_bw = 5251 
Wasted_Col = 35763 
Wasted_Row = 14139 
Idle = 15162 

BW Util Bottlenecks: 
RCDc_limit = 43624 
RCDWRc_limit = 5875 
WTRc_limit = 2957 
RTWc_limit = 11918 
CCDLc_limit = 1353 
rwq = 0 
CCDLc_limit_alone = 869 
WTRc_limit_alone = 2830 
RTWc_limit_alone = 11561 

Commands details: 
total_CMD = 70315 
n_nop = 56345 
Read = 4517 
Write = 0 
L2_Alloc = 0 
L2_WB = 734 
n_act = 4695 
n_pre = 4679 
n_ref = 0 
n_req = 5251 
total_req = 5251 

Dual Bus Interface Util: 
issued_total_row = 9374 
issued_total_col = 5251 
Row_Bus_Util =  0.133314 
CoL_Bus_Util = 0.074678 
Either_Row_CoL_Bus_Util = 0.198677 
Issued_on_Two_Bus_Simul_Util = 0.009315 
issued_two_Eff = 0.046886 
queue_avg = 0.332561 


dram_util_bins: 0 0 0 0 0 0 0 0 0 0
dram_eff_bins: 0 0 0 0 0 0 0 0 0 0
mrqq: max=13 avg=0.332561
Memory Partition 31: 
Cache L2_bank_062:
MSHR contents

Cache L2_bank_063:
MSHR contents

In Dram Latency Queue (total = 0): 
DRAM[31]: 16 bks, busW=16 BL=2 CL=12, tRRD=3 tCCD=1, tRCD=12 tRAS=28 tRP=12 tRC=40
n_cmd=70315 n_nop=57062 n_act=4420 n_pre=4404 n_ref_event=0 n_req=5009 n_rd=4352 n_rd_L2_A=0 n_write=0 n_wr_bk=657 bw_util=0.07124
n_activity=61588 dram_eff=0.08133
bk0: 256a 62364i bk1: 262a 62074i bk2: 272a 62097i bk3: 262a 62285i bk4: 262a 62619i bk5: 242a 62761i bk6: 274a 61998i bk7: 276a 62329i bk8: 330a 60865i bk9: 290a 62395i bk10: 322a 61338i bk11: 312a 62240i bk12: 272a 62097i bk13: 260a 62367i bk14: 230a 62938i bk15: 230a 63458i 

------------------------------------------------------------------------

Row_Buffer_Locality = 0.117588
Row_Buffer_Locality_read = 0.135110
Row_Buffer_Locality_write = 0.001522
Bank_Level_Parallism = 2.476892
Bank_Level_Parallism_Col = 1.613712
Bank_Level_Parallism_Ready = 1.082651
write_to_read_ratio_blp_rw_average = 0.196924
GrpLevelPara = 1.431309 

BW Util details:
bwutil = 0.071237 
total_CMD = 70315 
util_bw = 5009 
Wasted_Col = 34540 
Wasted_Row = 14480 
Idle = 16286 

BW Util Bottlenecks: 
RCDc_limit = 41656 
RCDWRc_limit = 5341 
WTRc_limit = 2453 
RTWc_limit = 10452 
CCDLc_limit = 1234 
rwq = 0 
CCDLc_limit_alone = 820 
WTRc_limit_alone = 2351 
RTWc_limit_alone = 10140 

Commands details: 
total_CMD = 70315 
n_nop = 57062 
Read = 4352 
Write = 0 
L2_Alloc = 0 
L2_WB = 657 
n_act = 4420 
n_pre = 4404 
n_ref = 0 
n_req = 5009 
total_req = 5009 

Dual Bus Interface Util: 
issued_total_row = 8824 
issued_total_col = 5009 
Row_Bus_Util =  0.125492 
CoL_Bus_Util = 0.071237 
Either_Row_CoL_Bus_Util = 0.188480 
Issued_on_Two_Bus_Simul_Util = 0.008249 
issued_two_Eff = 0.043764 
queue_avg = 0.264481 


dram_util_bins: 0 0 0 0 0 0 0 0 0 0
dram_eff_bins: 0 0 0 0 0 0 0 0 0 0
mrqq: max=8 avg=0.264481

========= L2 cache stats =========
L2_cache_bank[0]: Access = 3454, Miss = 2156, Miss_rate = 0.624, Pending_hits = 0, Reservation_fails = 0
L2_cache_bank[1]: Access = 3477, Miss = 2172, Miss_rate = 0.625, Pending_hits = 0, Reservation_fails = 0
L2_cache_bank[2]: Access = 3504, Miss = 2196, Miss_rate = 0.627, Pending_hits = 0, Reservation_fails = 0
L2_cache_bank[3]: Access = 3546, Miss = 2210, Miss_rate = 0.623, Pending_hits = 0, Reservation_fails = 0
L2_cache_bank[4]: Access = 3465, Miss = 2160, Miss_rate = 0.623, Pending_hits = 0, Reservation_fails = 0
L2_cache_bank[5]: Access = 3474, Miss = 2158, Miss_rate = 0.621, Pending_hits = 0, Reservation_fails = 0
L2_cache_bank[6]: Access = 3439, Miss = 2158, Miss_rate = 0.628, Pending_hits = 0, Reservation_fails = 0
L2_cache_bank[7]: Access = 3456, Miss = 2160, Miss_rate = 0.625, Pending_hits = 2, Reservation_fails = 0
L2_cache_bank[8]: Access = 3381, Miss = 2100, Miss_rate = 0.621, Pending_hits = 0, Reservation_fails = 0
L2_cache_bank[9]: Access = 3195, Miss = 1948, Miss_rate = 0.610, Pending_hits = 0, Reservation_fails = 0
L2_cache_bank[10]: Access = 3756, Miss = 2382, Miss_rate = 0.634, Pending_hits = 0, Reservation_fails = 0
L2_cache_bank[11]: Access = 3444, Miss = 2152, Miss_rate = 0.625, Pending_hits = 0, Reservation_fails = 0
L2_cache_bank[12]: Access = 3363, Miss = 2086, Miss_rate = 0.620, Pending_hits = 0, Reservation_fails = 0
L2_cache_bank[13]: Access = 3468, Miss = 2160, Miss_rate = 0.623, Pending_hits = 0, Reservation_fails = 0
L2_cache_bank[14]: Access = 3411, Miss = 2100, Miss_rate = 0.616, Pending_hits = 0, Reservation_fails = 0
L2_cache_bank[15]: Access = 3357, Miss = 2086, Miss_rate = 0.621, Pending_hits = 0, Reservation_fails = 0
L2_cache_bank[16]: Access = 3570, Miss = 2232, Miss_rate = 0.625, Pending_hits = 0, Reservation_fails = 0
L2_cache_bank[17]: Access = 3390, Miss = 2124, Miss_rate = 0.627, Pending_hits = 0, Reservation_fails = 0
L2_cache_bank[18]: Access = 3498, Miss = 2190, Miss_rate = 0.626, Pending_hits = 0, Reservation_fails = 0
L2_cache_bank[19]: Access = 3501, Miss = 2180, Miss_rate = 0.623, Pending_hits = 0, Reservation_fails = 0
L2_cache_bank[20]: Access = 3409, Miss = 2102, Miss_rate = 0.617, Pending_hits = 0, Reservation_fails = 0
L2_cache_bank[21]: Access = 3477, Miss = 2170, Miss_rate = 0.624, Pending_hits = 0, Reservation_fails = 0
L2_cache_bank[22]: Access = 3333, Miss = 2058, Miss_rate = 0.617, Pending_hits = 0, Reservation_fails = 0
L2_cache_bank[23]: Access = 3393, Miss = 2104, Miss_rate = 0.620, Pending_hits = 0, Reservation_fails = 0
L2_cache_bank[24]: Access = 3570, Miss = 2238, Miss_rate = 0.627, Pending_hits = 0, Reservation_fails = 0
L2_cache_bank[25]: Access = 3390, Miss = 2106, Miss_rate = 0.621, Pending_hits = 0, Reservation_fails = 0
L2_cache_bank[26]: Access = 3522, Miss = 2214, Miss_rate = 0.629, Pending_hits = 0, Reservation_fails = 0
L2_cache_bank[27]: Access = 3256, Miss = 2026, Miss_rate = 0.622, Pending_hits = 0, Reservation_fails = 0
L2_cache_bank[28]: Access = 3504, Miss = 2182, Miss_rate = 0.623, Pending_hits = 0, Reservation_fails = 0
L2_cache_bank[29]: Access = 3375, Miss = 2098, Miss_rate = 0.622, Pending_hits = 0, Reservation_fails = 0
L2_cache_bank[30]: Access = 3502, Miss = 2190, Miss_rate = 0.625, Pending_hits = 0, Reservation_fails = 0
L2_cache_bank[31]: Access = 3381, Miss = 2110, Miss_rate = 0.624, Pending_hits = 0, Reservation_fails = 0
L2_cache_bank[32]: Access = 3534, Miss = 2220, Miss_rate = 0.628, Pending_hits = 0, Reservation_fails = 0
L2_cache_bank[33]: Access = 3481, Miss = 2183, Miss_rate = 0.627, Pending_hits = 0, Reservation_fails = 0
L2_cache_bank[34]: Access = 3360, Miss = 2080, Miss_rate = 0.619, Pending_hits = 0, Reservation_fails = 0
L2_cache_bank[35]: Access = 3664, Miss = 2302, Miss_rate = 0.628, Pending_hits = 0, Reservation_fails = 0
L2_cache_bank[36]: Access = 3279, Miss = 2034, Miss_rate = 0.620, Pending_hits = 0, Reservation_fails = 0
L2_cache_bank[37]: Access = 3408, Miss = 2128, Miss_rate = 0.624, Pending_hits = 2, Reservation_fails = 0
L2_cache_bank[38]: Access = 3484, Miss = 2196, Miss_rate = 0.630, Pending_hits = 0, Reservation_fails = 0
L2_cache_bank[39]: Access = 3334, Miss = 2064, Miss_rate = 0.619, Pending_hits = 0, Reservation_fails = 0
L2_cache_bank[40]: Access = 3384, Miss = 2110, Miss_rate = 0.624, Pending_hits = 0, Reservation_fails = 0
L2_cache_bank[41]: Access = 3408, Miss = 2134, Miss_rate = 0.626, Pending_hits = 0, Reservation_fails = 0
L2_cache_bank[42]: Access = 3444, Miss = 2146, Miss_rate = 0.623, Pending_hits = 0, Reservation_fails = 0
L2_cache_bank[43]: Access = 3525, Miss = 2222, Miss_rate = 0.630, Pending_hits = 0, Reservation_fails = 0
L2_cache_bank[44]: Access = 3534, Miss = 2230, Miss_rate = 0.631, Pending_hits = 0, Reservation_fails = 0
L2_cache_bank[45]: Access = 3519, Miss = 2204, Miss_rate = 0.626, Pending_hits = 0, Reservation_fails = 0
L2_cache_bank[46]: Access = 3514, Miss = 2188, Miss_rate = 0.623, Pending_hits = 0, Reservation_fails = 0
L2_cache_bank[47]: Access = 3418, Miss = 2141, Miss_rate = 0.626, Pending_hits = 0, Reservation_fails = 0
L2_cache_bank[48]: Access = 3310, Miss = 2040, Miss_rate = 0.616, Pending_hits = 0, Reservation_fails = 0
L2_cache_bank[49]: Access = 3453, Miss = 2154, Miss_rate = 0.624, Pending_hits = 0, Reservation_fails = 0
L2_cache_bank[50]: Access = 3489, Miss = 2190, Miss_rate = 0.628, Pending_hits = 0, Reservation_fails = 0
L2_cache_bank[51]: Access = 3433, Miss = 2142, Miss_rate = 0.624, Pending_hits = 0, Reservation_fails = 0
L2_cache_bank[52]: Access = 3318, Miss = 2056, Miss_rate = 0.620, Pending_hits = 0, Reservation_fails = 0
L2_cache_bank[53]: Access = 3594, Miss = 2278, Miss_rate = 0.634, Pending_hits = 0, Reservation_fails = 0
L2_cache_bank[54]: Access = 3499, Miss = 2184, Miss_rate = 0.624, Pending_hits = 0, Reservation_fails = 0
L2_cache_bank[55]: Access = 3405, Miss = 2112, Miss_rate = 0.620, Pending_hits = 0, Reservation_fails = 0
L2_cache_bank[56]: Access = 3561, Miss = 2250, Miss_rate = 0.632, Pending_hits = 0, Reservation_fails = 0
L2_cache_bank[57]: Access = 3498, Miss = 2202, Miss_rate = 0.630, Pending_hits = 0, Reservation_fails = 0
L2_cache_bank[58]: Access = 3502, Miss = 2202, Miss_rate = 0.629, Pending_hits = 0, Reservation_fails = 0
L2_cache_bank[59]: Access = 3436, Miss = 2144, Miss_rate = 0.624, Pending_hits = 2, Reservation_fails = 0
L2_cache_bank[60]: Access = 3603, Miss = 2258, Miss_rate = 0.627, Pending_hits = 0, Reservation_fails = 0
L2_cache_bank[61]: Access = 3595, Miss = 2259, Miss_rate = 0.628, Pending_hits = 0, Reservation_fails = 0
L2_cache_bank[62]: Access = 3546, Miss = 2218, Miss_rate = 0.625, Pending_hits = 0, Reservation_fails = 0
L2_cache_bank[63]: Access = 3409, Miss = 2134, Miss_rate = 0.626, Pending_hits = 0, Reservation_fails = 0
L2_total_cache_accesses = 221202
L2_total_cache_misses = 138113
L2_total_cache_miss_rate = 0.6244
L2_total_cache_pending_hits = 6
L2_total_cache_reservation_fails = 0
L2_total_cache_breakdown:
	L2_cache_stats_breakdown[GLOBAL_ACC_R][HIT] = 17547
	L2_cache_stats_breakdown[GLOBAL_ACC_R][HIT_RESERVED] = 6
	L2_cache_stats_breakdown[GLOBAL_ACC_R][MISS] = 67074
	L2_cache_stats_breakdown[GLOBAL_ACC_R][RESERVATION_FAIL] = 0
	L2_cache_stats_breakdown[GLOBAL_ACC_R][SECTOR_MISS] = 71039
	L2_cache_stats_breakdown[LOCAL_ACC_R][HIT] = 0
	L2_cache_stats_breakdown[LOCAL_ACC_R][HIT_RESERVED] = 0
	L2_cache_stats_breakdown[LOCAL_ACC_R][MISS] = 0
	L2_cache_stats_breakdown[LOCAL_ACC_R][RESERVATION_FAIL] = 0
	L2_cache_stats_breakdown[LOCAL_ACC_R][SECTOR_MISS] = 0
	L2_cache_stats_breakdown[CONST_ACC_R][HIT] = 0
	L2_cache_stats_breakdown[CONST_ACC_R][HIT_RESERVED] = 0
	L2_cache_stats_breakdown[CONST_ACC_R][MISS] = 0
	L2_cache_stats_breakdown[CONST_ACC_R][RESERVATION_FAIL] = 0
	L2_cache_stats_breakdown[CONST_ACC_R][SECTOR_MISS] = 0
	L2_cache_stats_breakdown[TEXTURE_ACC_R][HIT] = 0
	L2_cache_stats_breakdown[TEXTURE_ACC_R][HIT_RESERVED] = 0
	L2_cache_stats_breakdown[TEXTURE_ACC_R][MISS] = 0
	L2_cache_stats_breakdown[TEXTURE_ACC_R][RESERVATION_FAIL] = 0
	L2_cache_stats_breakdown[TEXTURE_ACC_R][SECTOR_MISS] = 0
	L2_cache_stats_breakdown[GLOBAL_ACC_W][HIT] = 65536
	L2_cache_stats_breakdown[GLOBAL_ACC_W][HIT_RESERVED] = 0
	L2_cache_stats_breakdown[GLOBAL_ACC_W][MISS] = 0
	L2_cache_stats_breakdown[GLOBAL_ACC_W][RESERVATION_FAIL] = 0
	L2_cache_stats_breakdown[GLOBAL_ACC_W][SECTOR_MISS] = 0
	L2_cache_stats_breakdown[LOCAL_ACC_W][HIT] = 0
	L2_cache_stats_breakdown[LOCAL_ACC_W][HIT_RESERVED] = 0
	L2_cache_stats_breakdown[LOCAL_ACC_W][MISS] = 0
	L2_cache_stats_breakdown[LOCAL_ACC_W][RESERVATION_FAIL] = 0
	L2_cache_stats_breakdown[LOCAL_ACC_W][SECTOR_MISS] = 0
	L2_cache_stats_breakdown[L1_WRBK_ACC][HIT] = 0
	L2_cache_stats_breakdown[L1_WRBK_ACC][HIT_RESERVED] = 0
	L2_cache_stats_breakdown[L1_WRBK_ACC][MISS] = 0
	L2_cache_stats_breakdown[L1_WRBK_ACC][RESERVATION_FAIL] = 0
	L2_cache_stats_breakdown[L1_WRBK_ACC][SECTOR_MISS] = 0
	L2_cache_stats_breakdown[L2_WRBK_ACC][HIT] = 0
	L2_cache_stats_breakdown[L2_WRBK_ACC][HIT_RESERVED] = 0
	L2_cache_stats_breakdown[L2_WRBK_ACC][MISS] = 0
	L2_cache_stats_breakdown[L2_WRBK_ACC][RESERVATION_FAIL] = 0
	L2_cache_stats_breakdown[L2_WRBK_ACC][SECTOR_MISS] = 0
	L2_cache_stats_breakdown[INST_ACC_R][HIT] = 0
	L2_cache_stats_breakdown[INST_ACC_R][HIT_RESERVED] = 0
	L2_cache_stats_breakdown[INST_ACC_R][MISS] = 0
	L2_cache_stats_breakdown[INST_ACC_R][RESERVATION_FAIL] = 0
	L2_cache_stats_breakdown[INST_ACC_R][SECTOR_MISS] = 0
	L2_cache_stats_breakdown[L1_WR_ALLOC_R][HIT] = 0
	L2_cache_stats_breakdown[L1_WR_ALLOC_R][HIT_RESERVED] = 0
	L2_cache_stats_breakdown[L1_WR_ALLOC_R][MISS] = 0
	L2_cache_stats_breakdown[L1_WR_ALLOC_R][RESERVATION_FAIL] = 0
	L2_cache_stats_breakdown[L1_WR_ALLOC_R][SECTOR_MISS] = 0
	L2_cache_stats_breakdown[L2_WR_ALLOC_R][HIT] = 0
	L2_cache_stats_breakdown[L2_WR_ALLOC_R][HIT_RESERVED] = 0
	L2_cache_stats_breakdown[L2_WR_ALLOC_R][MISS] = 0
	L2_cache_stats_breakdown[L2_WR_ALLOC_R][RESERVATION_FAIL] = 0
	L2_cache_stats_breakdown[L2_WR_ALLOC_R][SECTOR_MISS] = 0
	L2_cache_stats_breakdown[GLOBAL_ACC_R][TOTAL_ACCESS] = 155666
	L2_cache_stats_breakdown[GLOBAL_ACC_W][TOTAL_ACCESS] = 65536
L2_total_cache_reservation_fail_breakdown:
L2_cache_data_port_util = 0.014
L2_cache_fill_port_util = 0.023

icnt_total_pkts_mem_to_simt=221202
icnt_total_pkts_simt_to_mem=221202
LD_mem_lat_dist  0 0 0 0 0 0 0 0 0 0 0 0 0 0 0 0 0 0 0 0 0 0 0 0 0 0 0
ST_mem_lat_dist  0 0 0 0 0 0 0 0 0 0 0 0 0 0 0 0 0 0 0 0 0 0 0 0 0 0 0
----------------------------Interconnect-DETAILS--------------------------------
Req_Network_injected_packets_num = 221202
Req_Network_cycles = 93643
Req_Network_injected_packets_per_cycle =       2.3622 
Req_Network_conflicts_per_cycle =       0.0440
Req_Network_conflicts_per_cycle_util =       0.0505
Req_Bank_Level_Parallism =       2.7110
Req_Network_in_buffer_full_per_cycle =       0.0000
Req_Network_in_buffer_avg_util =       0.0009
Req_Network_out_buffer_full_per_cycle =       0.0000
Req_Network_out_buffer_avg_util =       0.0369

Reply_Network_injected_packets_num = 221202
Reply_Network_cycles = 93643
Reply_Network_injected_packets_per_cycle =        2.3622
Reply_Network_conflicts_per_cycle =        1.1620
Reply_Network_conflicts_per_cycle_util =       1.3516
Reply_Bank_Level_Parallism =       2.7476
Reply_Network_in_buffer_full_per_cycle =       0.0000
Reply_Network_in_buffer_avg_util =       0.0198
Reply_Network_out_buffer_full_per_cycle =       0.0000
Reply_Network_out_buffer_avg_util =       0.0295
----------------------------END-of-Interconnect-DETAILS-------------------------


gpgpu_simulation_time = 0 days, 0 hrs, 2 min, 52 sec (172 sec)
gpgpu_simulation_rate = 91454 (inst/sec)
gpgpu_simulation_rate = 544 (cycle/sec)
gpgpu_silicon_slowdown = 2080882x
GPGPU-Sim: detected inactive GPU simulation thread

total_us: 1 laps, 120569335 us


gen_hists: 1 laps, 120569335.000000 us/lap, 15071166.875000 us/cta

GPGPU-Sim: synchronize waiting for inactive GPU simulation
GPGPU-Sim API: Stream Manager State
GPGPU-Sim: detected inactive GPU simulation thread
GPGPU-Sim: *** exit detected ***
