

        *** GPGPU-Sim Simulator Version 4.0.0  [build gpgpu-sim_git-commit-_modified_0.0] ***


GPGPU-Sim PTX: simulation mode 0 (can change with PTX_SIM_MODE_FUNC environment variable:
               1=functional simulation only, 0=detailed performance simulator)
GPGPU-Sim PTX: overriding embedded ptx with ptx file (PTX_SIM_USE_PTX_FILE is set)
GPGPU-Sim: Configuration options:

-save_embedded_ptx                      0 # saves ptx files embedded in binary as <n>.ptx
-keep                                   0 # keep intermediate files created by GPGPU-Sim when interfacing with external programs
-gpgpu_ptx_save_converted_ptxplus                    0 # Saved converted ptxplus to a file
-gpgpu_occupancy_sm_number                   70 # The SM number to pass to ptxas when getting register usage for computing GPU occupancy. This parameter is required in the config.
-ptx_opcode_latency_int      4,13,4,5,145,21 # Opcode latencies for integers <ADD,MAX,MUL,MAD,DIV,SHFL>Default 1,1,19,25,145,32
-ptx_opcode_latency_fp          4,13,4,5,39 # Opcode latencies for single precision floating points <ADD,MAX,MUL,MAD,DIV>Default 1,1,1,1,30
-ptx_opcode_latency_dp         8,19,8,8,330 # Opcode latencies for double precision floating points <ADD,MAX,MUL,MAD,DIV>Default 8,8,8,8,335
-ptx_opcode_latency_sfu                  100 # Opcode latencies for SFU instructionsDefault 8
-ptx_opcode_latency_tesnor                   64 # Opcode latencies for Tensor instructionsDefault 64
-ptx_opcode_initiation_int          2,2,2,2,8,4 # Opcode initiation intervals for integers <ADD,MAX,MUL,MAD,DIV,SHFL>Default 1,1,4,4,32,4
-ptx_opcode_initiation_fp            2,2,2,2,4 # Opcode initiation intervals for single precision floating points <ADD,MAX,MUL,MAD,DIV>Default 1,1,1,1,5
-ptx_opcode_initiation_dp          4,4,4,4,130 # Opcode initiation intervals for double precision floating points <ADD,MAX,MUL,MAD,DIV>Default 8,8,8,8,130
-ptx_opcode_initiation_sfu                    8 # Opcode initiation intervals for sfu instructionsDefault 8
-ptx_opcode_initiation_tensor                   64 # Opcode initiation intervals for tensor instructionsDefault 64
-cdp_latency         7200,8000,100,12000,1600 # CDP API latency <cudaStreamCreateWithFlags, cudaGetParameterBufferV2_init_perWarp, cudaGetParameterBufferV2_perKernel, cudaLaunchDeviceV2_init_perWarp, cudaLaunchDevicV2_perKernel>Default 7200,8000,100,12000,1600
-network_mode                           2 # Interconnection network mode
-inter_config_file                   mesh # Interconnection network config file
-icnt_in_buffer_limit                  512 # in_buffer_limit
-icnt_out_buffer_limit                  512 # out_buffer_limit
-icnt_subnets                           2 # subnets
-icnt_arbiter_algo                      1 # arbiter_algo
-icnt_verbose                           0 # inct_verbose
-icnt_grant_cycles                      1 # grant_cycles
-gpgpu_ptx_use_cuobjdump                    1 # Use cuobjdump to extract ptx and sass from binaries
-gpgpu_experimental_lib_support                    0 # Try to extract code from cuda libraries [Broken because of unknown cudaGetExportTable]
-checkpoint_option                      0 #  checkpointing flag (0 = no checkpoint)
-checkpoint_kernel                      1 #  checkpointing during execution of which kernel (1- 1st kernel)
-checkpoint_CTA                         0 #  checkpointing after # of CTA (< less than total CTA)
-resume_option                          0 #  resume flag (0 = no resume)
-resume_kernel                          0 #  Resume from which kernel (1= 1st kernel)
-resume_CTA                             0 #  resume from which CTA 
-checkpoint_CTA_t                       0 #  resume from which CTA 
-checkpoint_insn_Y                      0 #  resume from which CTA 
-gpgpu_ptx_convert_to_ptxplus                    0 # Convert SASS (native ISA) to ptxplus and run ptxplus
-gpgpu_ptx_force_max_capability                   70 # Force maximum compute capability
-gpgpu_ptx_inst_debug_to_file                    0 # Dump executed instructions' debug information to file
-gpgpu_ptx_inst_debug_file       inst_debug.txt # Executed instructions' debug output file
-gpgpu_ptx_inst_debug_thread_uid                    1 # Thread UID for executed instructions' debug output
-gpgpu_n_mem_for_l2wb_pcommit                   32 # number of memory modules (e.g. memory controllers) in gpu
-gpgpu_n_sub_partition_per_mchannel_for_l2wb_pcommit                    2 # number of memory subpartition in each memory module
-gpgpu_dl2_bsize_for_l2wb_pcommit                  128 # default 128 bytes
-gpgpu_simd_model                       1 # 1 = post-dominator
-gpgpu_shader_core_pipeline              2048:32 # shader core pipeline config, i.e., {<nthread>:<warpsize>}
-gpgpu_tex_cache:l1  N:4:128:256,L:R:m:N:L,T:512:8,128:2 # per-shader L1 texture cache  (READ-ONLY) config  {<nsets>:<bsize>:<assoc>,<rep>:<wr>:<alloc>:<wr_alloc>,<mshr>:<N>:<merge>,<mq>:<rf>}
-gpgpu_const_cache:l1 N:128:64:8,L:R:f:N:L,S:2:64,4 # per-shader L1 constant memory cache  (READ-ONLY) config  {<nsets>:<bsize>:<assoc>,<rep>:<wr>:<alloc>:<wr_alloc>,<mshr>:<N>:<merge>,<mq>} 
-gpgpu_cache:il1     N:64:128:16,L:R:f:N:L,S:2:48,4 # shader L1 instruction cache config  {<nsets>:<bsize>:<assoc>,<rep>:<wr>:<alloc>:<wr_alloc>,<mshr>:<N>:<merge>,<mq>} 
-gpgpu_cache:dl1     S:1:128:256,L:L:s:N:L,A:256:8,16:0,32 # per-shader L1 data cache config  {<nsets>:<bsize>:<assoc>,<rep>:<wr>:<alloc>:<wr_alloc>,<mshr>:<N>:<merge>,<mq> | none}
-gpgpu_l1_banks                         4 # The number of L1 cache banks
-gpgpu_l1_banks_byte_interleaving                   32 # l1 banks byte interleaving granularity
-gpgpu_l1_banks_hashing_function                    0 # l1 banks hashing function
-gpgpu_l1_latency                      20 # L1 Hit Latency
-gpgpu_smem_latency                    20 # smem Latency
-gpgpu_cache:dl1PrefL1                 none # per-shader L1 data cache config  {<nsets>:<bsize>:<assoc>,<rep>:<wr>:<alloc>:<wr_alloc>,<mshr>:<N>:<merge>,<mq> | none}
-gpgpu_cache:dl1PrefShared                 none # per-shader L1 data cache config  {<nsets>:<bsize>:<assoc>,<rep>:<wr>:<alloc>:<wr_alloc>,<mshr>:<N>:<merge>,<mq> | none}
-gpgpu_gmem_skip_L1D                    0 # global memory access skip L1D cache (implements -Xptxas -dlcm=cg, default=no skip)
-gpgpu_perfect_mem                      0 # enable perfect memory mode (no cache miss)
-n_regfile_gating_group                    4 # group of lanes that should be read/written together)
-gpgpu_clock_gated_reg_file                    0 # enable clock gated reg file for power calculations
-gpgpu_clock_gated_lanes                    0 # enable clock gated lanes for power calculations
-gpgpu_shader_registers                65536 # Number of registers per shader core. Limits number of concurrent CTAs. (default 8192)
-gpgpu_registers_per_block                65536 # Maximum number of registers per CTA. (default 8192)
-gpgpu_ignore_resources_limitation                    0 # gpgpu_ignore_resources_limitation (default 0)
-gpgpu_shader_cta                      32 # Maximum number of concurrent CTAs in shader (default 8)
-gpgpu_num_cta_barriers                   16 # Maximum number of named barriers per CTA (default 16)
-gpgpu_n_clusters                      80 # number of processing clusters
-gpgpu_n_cores_per_cluster                    1 # number of simd cores per cluster
-gpgpu_n_cluster_ejection_buffer_size                   32 # number of packets in ejection buffer
-gpgpu_n_ldst_response_buffer_size                    2 # number of response packets in ld/st unit ejection buffer
-gpgpu_shmem_per_block                65536 # Size of shared memory per thread block or CTA (default 48kB)
-gpgpu_shmem_size                   98304 # Size of shared memory per shader core (default 16kB)
-gpgpu_adaptive_cache_config            536870913 # adaptive_cache_config
-gpgpu_shmem_sizeDefault                98304 # Size of shared memory per shader core (default 16kB)
-gpgpu_shmem_size_PrefL1                16384 # Size of shared memory per shader core (default 16kB)
-gpgpu_shmem_size_PrefShared                16384 # Size of shared memory per shader core (default 16kB)
-gpgpu_shmem_num_banks                   32 # Number of banks in the shared memory in each shader core (default 16)
-gpgpu_shmem_limited_broadcast                    0 # Limit shared memory to do one broadcast per cycle (default on)
-gpgpu_shmem_warp_parts                    1 # Number of portions a warp is divided into for shared memory bank conflict check 
-gpgpu_mem_unit_ports                    1 # The number of memory transactions allowed per core cycle
-gpgpu_shmem_warp_parts                    1 # Number of portions a warp is divided into for shared memory bank conflict check 
-gpgpu_warpdistro_shader                   -1 # Specify which shader core to collect the warp size distribution from
-gpgpu_warp_issue_shader                    0 # Specify which shader core to collect the warp issue distribution from
-gpgpu_local_mem_map                    1 # Mapping from local memory space address to simulated GPU physical address space (default = enabled)
-gpgpu_num_reg_banks                   16 # Number of register banks (default = 8)
-gpgpu_reg_bank_use_warp_id                    0 # Use warp ID in mapping registers to banks (default = off)
-gpgpu_sub_core_model                    1 # Sub Core Volta/Pascal model (default = off)
-gpgpu_enable_specialized_operand_collector                    0 # enable_specialized_operand_collector
-gpgpu_operand_collector_num_units_sp                    4 # number of collector units (default = 4)
-gpgpu_operand_collector_num_units_dp                    0 # number of collector units (default = 0)
-gpgpu_operand_collector_num_units_sfu                    4 # number of collector units (default = 4)
-gpgpu_operand_collector_num_units_int                    0 # number of collector units (default = 0)
-gpgpu_operand_collector_num_units_tensor_core                    4 # number of collector units (default = 4)
-gpgpu_operand_collector_num_units_mem                    2 # number of collector units (default = 2)
-gpgpu_operand_collector_num_units_gen                    8 # number of collector units (default = 0)
-gpgpu_operand_collector_num_in_ports_sp                    1 # number of collector unit in ports (default = 1)
-gpgpu_operand_collector_num_in_ports_dp                    0 # number of collector unit in ports (default = 0)
-gpgpu_operand_collector_num_in_ports_sfu                    1 # number of collector unit in ports (default = 1)
-gpgpu_operand_collector_num_in_ports_int                    0 # number of collector unit in ports (default = 0)
-gpgpu_operand_collector_num_in_ports_tensor_core                    1 # number of collector unit in ports (default = 1)
-gpgpu_operand_collector_num_in_ports_mem                    1 # number of collector unit in ports (default = 1)
-gpgpu_operand_collector_num_in_ports_gen                    8 # number of collector unit in ports (default = 0)
-gpgpu_operand_collector_num_out_ports_sp                    1 # number of collector unit in ports (default = 1)
-gpgpu_operand_collector_num_out_ports_dp                    0 # number of collector unit in ports (default = 0)
-gpgpu_operand_collector_num_out_ports_sfu                    1 # number of collector unit in ports (default = 1)
-gpgpu_operand_collector_num_out_ports_int                    0 # number of collector unit in ports (default = 0)
-gpgpu_operand_collector_num_out_ports_tensor_core                    1 # number of collector unit in ports (default = 1)
-gpgpu_operand_collector_num_out_ports_mem                    1 # number of collector unit in ports (default = 1)
-gpgpu_operand_collector_num_out_ports_gen                    8 # number of collector unit in ports (default = 0)
-gpgpu_coalesce_arch                   60 # Coalescing arch (GT200 = 13, Fermi = 20)
-gpgpu_num_sched_per_core                    4 # Number of warp schedulers per core
-gpgpu_max_insn_issue_per_warp                    1 # Max number of instructions that can be issued per warp in one cycle by scheduler (either 1 or 2)
-gpgpu_dual_issue_diff_exec_units                    1 # should dual issue use two different execution unit resources (Default = 1)
-gpgpu_simt_core_sim_order                    1 # Select the simulation order of cores in a cluster (0=Fix, 1=Round-Robin)
-gpgpu_pipeline_widths 4,4,4,4,4,4,4,4,4,4,8,4,4 # Pipeline widths ID_OC_SP,ID_OC_DP,ID_OC_INT,ID_OC_SFU,ID_OC_MEM,OC_EX_SP,OC_EX_DP,OC_EX_INT,OC_EX_SFU,OC_EX_MEM,EX_WB,ID_OC_TENSOR_CORE,OC_EX_TENSOR_CORE
-gpgpu_tensor_core_avail                    1 # Tensor Core Available (default=0)
-gpgpu_num_sp_units                     4 # Number of SP units (default=1)
-gpgpu_num_dp_units                     4 # Number of DP units (default=0)
-gpgpu_num_int_units                    4 # Number of INT units (default=0)
-gpgpu_num_sfu_units                    4 # Number of SF units (default=1)
-gpgpu_num_tensor_core_units                    4 # Number of tensor_core units (default=1)
-gpgpu_num_mem_units                    1 # Number if ldst units (default=1) WARNING: not hooked up to anything
-gpgpu_scheduler                      gto # Scheduler configuration: < lrr | gto | two_level_active > If two_level_active:<num_active_warps>:<inner_prioritization>:<outer_prioritization>For complete list of prioritization values see shader.h enum scheduler_prioritization_typeDefault: gto
-gpgpu_concurrent_kernel_sm                    0 # Support concurrent kernels on a SM (default = disabled)
-gpgpu_perfect_inst_const_cache                    1 # perfect inst and const cache mode, so all inst and const hits in the cache(default = disabled)
-gpgpu_inst_fetch_throughput                    4 # the number of fetched intruction per warp each cycle
-gpgpu_reg_file_port_throughput                    2 # the number ports of the register file
-specialized_unit_1         0,4,4,4,4,BRA # specialized unit config {<enabled>,<num_units>:<latency>:<initiation>,<ID_OC_SPEC>:<OC_EX_SPEC>,<NAME>}
-specialized_unit_2         0,4,4,4,4,BRA # specialized unit config {<enabled>,<num_units>:<latency>:<initiation>,<ID_OC_SPEC>:<OC_EX_SPEC>,<NAME>}
-specialized_unit_3         0,4,4,4,4,BRA # specialized unit config {<enabled>,<num_units>:<latency>:<initiation>,<ID_OC_SPEC>:<OC_EX_SPEC>,<NAME>}
-specialized_unit_4         0,4,4,4,4,BRA # specialized unit config {<enabled>,<num_units>:<latency>:<initiation>,<ID_OC_SPEC>:<OC_EX_SPEC>,<NAME>}
-specialized_unit_5         0,4,4,4,4,BRA # specialized unit config {<enabled>,<num_units>:<latency>:<initiation>,<ID_OC_SPEC>:<OC_EX_SPEC>,<NAME>}
-specialized_unit_6         0,4,4,4,4,BRA # specialized unit config {<enabled>,<num_units>:<latency>:<initiation>,<ID_OC_SPEC>:<OC_EX_SPEC>,<NAME>}
-specialized_unit_7         0,4,4,4,4,BRA # specialized unit config {<enabled>,<num_units>:<latency>:<initiation>,<ID_OC_SPEC>:<OC_EX_SPEC>,<NAME>}
-specialized_unit_8         0,4,4,4,4,BRA # specialized unit config {<enabled>,<num_units>:<latency>:<initiation>,<ID_OC_SPEC>:<OC_EX_SPEC>,<NAME>}
-gpgpu_perf_sim_memcpy                    1 # Fill the L2 cache on memcpy
-gpgpu_simple_dram_model                    0 # simple_dram_model with fixed latency and BW
-gpgpu_dram_scheduler                    1 # 0 = fifo, 1 = FR-FCFS (defaul)
-gpgpu_dram_partition_queues          64:64:64:64 # i2$:$2d:d2$:$2i
-l2_ideal                               0 # Use a ideal L2 cache that always hit
-gpgpu_cache:dl2     S:32:128:24,L:B:m:L:P,A:192:4,32:0,32 # unified banked L2 data cache config  {<nsets>:<bsize>:<assoc>,<rep>:<wr>:<alloc>:<wr_alloc>,<mshr>:<N>:<merge>,<mq>}
-gpgpu_cache:dl2_texture_only                    0 # L2 cache used for texture only
-gpgpu_n_mem                           32 # number of memory modules (e.g. memory controllers) in gpu
-gpgpu_n_sub_partition_per_mchannel                    2 # number of memory subpartition in each memory module
-gpgpu_n_mem_per_ctrlr                    1 # number of memory chips per memory controller
-gpgpu_memlatency_stat                   14 # track and display latency statistics 0x2 enables MC, 0x4 enables queue logs
-gpgpu_frfcfs_dram_sched_queue_size                   64 # 0 = unlimited (default); # entries per chip
-gpgpu_dram_return_queue_size                  192 # 0 = unlimited (default); # entries per chip
-gpgpu_dram_buswidth                   16 # default = 4 bytes (8 bytes per cycle at DDR)
-gpgpu_dram_burst_length                    2 # Burst length of each DRAM request (default = 4 data bus cycle)
-dram_data_command_freq_ratio                    2 # Frequency ratio between DRAM data bus and command bus (default = 2 times, i.e. DDR)
-gpgpu_dram_timing_opt nbk=16:CCD=1:RRD=3:RCD=12:RAS=28:RP=12:RC=40: CL=12:WL=2:CDLR=3:WR=10:nbkgrp=4:CCDL=2:RTPL=3 # DRAM timing parameters = {nbk:tCCD:tRRD:tRCD:tRAS:tRP:tRC:CL:WL:tCDLR:tWR:nbkgrp:tCCDL:tRTPL}
-gpgpu_l2_rop_latency                  160 # ROP queue latency (default 85)
-dram_latency                         200 # DRAM latency (default 30)
-dram_write_latency                   600 # DRAM write latency (default 100)
-dram_dual_bus_interface                    1 # dual_bus_interface (default = 0) 
-dram_bnk_indexing_policy                    0 # dram_bnk_indexing_policy (0 = normal indexing, 1 = Xoring with the higher bits) (Default = 0)
-dram_bnkgrp_indexing_policy                    1 # dram_bnkgrp_indexing_policy (0 = take higher bits, 1 = take lower bits) (Default = 0)
-dram_seperate_write_queue_enable                    0 # Seperate_Write_Queue_Enable
-dram_write_queue_size             32:28:16 # Write_Queue_Size
-dram_elimnate_rw_turnaround                    0 # elimnate_rw_turnaround i.e set tWTR and tRTW = 0
-icnt_flit_size                        40 # icnt_flit_size
-gpgpu_mem_addr_mapping dramid@8;00000000.00000000.00000000.00000000.0000RRRR.RRRRRRRR.RBBBCCCB.CCCSSSSS # mapping memory address to dram model {dramid@<start bit>;<memory address map>}
-gpgpu_mem_addr_test                    0 # run sweep test to check address mapping for aliased address
-gpgpu_mem_address_mask                    1 # 0 = old addressing mask, 1 = new addressing mask, 2 = new add. mask + flipped bank sel and chip sel bits
-gpgpu_memory_partition_indexing                    0 # 0 = no indexing, 1 = bitwise xoring, 2 = IPoly, 3 = custom indexing
-gpuwattch_xml_file         gpuwattch.xml # GPUWattch XML file
-power_simulation_enabled                    0 # Turn on power simulator (1=On, 0=Off)
-power_per_cycle_dump                    0 # Dump detailed power output each cycle
-power_trace_enabled                    0 # produce a file for the power trace (1=On, 0=Off)
-power_trace_zlevel                     6 # Compression level of the power trace output log (0=no comp, 9=highest)
-steady_power_levels_enabled                    0 # produce a file for the steady power levels (1=On, 0=Off)
-steady_state_definition                  8:4 # allowed deviation:number of samples
-gpgpu_max_cycle                        0 # terminates gpu simulation early (0 = no limit)
-gpgpu_max_insn                         0 # terminates gpu simulation early (0 = no limit)
-gpgpu_max_cta                          0 # terminates gpu simulation early (0 = no limit)
-gpgpu_max_completed_cta                    0 # terminates gpu simulation early (0 = no limit)
-gpgpu_runtime_stat                   500 # display runtime statistics such as dram utilization {<freq>:<flag>}
-liveness_message_freq                    1 # Minimum number of seconds between simulation liveness messages (0 = always print)
-gpgpu_compute_capability_major                    7 # Major compute capability version number
-gpgpu_compute_capability_minor                    0 # Minor compute capability version number
-gpgpu_flush_l1_cache                    1 # Flush L1 cache at the end of each kernel call
-gpgpu_flush_l2_cache                    0 # Flush L2 cache at the end of each kernel call
-gpgpu_deadlock_detect                    1 # Stop the simulation at deadlock (1=on (default), 0=off)
-gpgpu_ptx_instruction_classification                    0 # if enabled will classify ptx instruction types per kernel (Max 255 kernels now)
-gpgpu_ptx_sim_mode                     0 # Select between Performance (default) or Functional simulation (1)
-gpgpu_clock_domains 1132.0:1132.0:1132.0:850.0 # Clock Domain Frequencies in MhZ {<Core Clock>:<ICNT Clock>:<L2 Clock>:<DRAM Clock>}
-gpgpu_max_concurrent_kernel                    8 # maximum kernels that can run concurrently on GPU
-gpgpu_cflog_interval                    0 # Interval between each snapshot in control flow logger
-visualizer_enabled               adda8e58574106fd26e85d273a499eea  /home/pli11/Desktop/re_test/megakv/delete/run
Extracting PTX file and ptxas options    1: run.1.sm_70.ptx -arch=sm_70
      0 # Turn on visualizer output (1=On, 0=Off)
-visualizer_outputfile                 NULL # Specifies the output log file for visualizer
-visualizer_zlevel                      6 # Compression level of the visualizer output log (0=no comp, 9=highest)
-gpgpu_stack_size_limit                 1024 # GPU thread stack size
-gpgpu_heap_size_limit              8388608 # GPU malloc heap size 
-gpgpu_runtime_sync_depth_limit                    2 # GPU device runtime synchronize depth
-gpgpu_runtime_pending_launch_count_limit                 2048 # GPU device runtime pending launch count
-trace_enabled                          0 # Turn on traces
-trace_components                    none # comma seperated list of traces to enable. Complete list found in trace_streams.tup. Default none
-trace_sampling_core                    0 # The core which is printed using CORE_DPRINTF. Default 0
-trace_sampling_memory_partition                   -1 # The memory partition which is printed using MEMPART_DPRINTF. Default -1 (i.e. all)
-enable_ptx_file_line_stats                    1 # Turn on PTX source line statistic profiling. (1 = On)
-ptx_line_stats_filename gpgpu_inst_stats.txt # Output file for PTX source line statistics.
-gpgpu_kernel_launch_latency                 5000 # Kernel launch latency in cycles. Default: 0
-gpgpu_cdp_enabled                      0 # Turn on CDP
-gpgpu_TB_launch_latency                    0 # thread block launch latency in cycles. Default: 0
DRAM Timing Options:
nbk                                    16 # number of banks
CCD                                     1 # column to column delay
RRD                                     3 # minimal delay between activation of rows in different banks
RCD                                    12 # row to column delay
RAS                                    28 # time needed to activate row
RP                                     12 # time needed to precharge (deactivate) row
RC                                     40 # row cycle time
CDLR                                    3 # switching from write to read (changes tWTR)
WR                                     10 # last data-in to row precharge
CL                                     12 # CAS latency
WL                                      2 # Write latency
nbkgrp                                  4 # number of bank groups
CCDL                                    2 # column to column delay between accesses to different bank groups
RTPL                                    3 # read to precharge delay between accesses to different bank groups
Total number of memory sub partition = 64
addr_dec_mask[CHIP]  = 0000000000001f00 	high:13 low:8
addr_dec_mask[BK]    = 00000000000e2000 	high:20 low:13
addr_dec_mask[ROW]   = 00000001fff00000 	high:33 low:20
addr_dec_mask[COL]   = 000000000001c0ff 	high:17 low:0
addr_dec_mask[BURST] = 000000000000001f 	high:5 low:0
sub_partition_id_mask = 0000000000002000
GPGPU-Sim uArch: clock freqs: 1132000000.000000:1132000000.000000:1132000000.000000:850000000.000000
GPGPU-Sim uArch: clock periods: 0.00000000088339222615:0.00000000088339222615:0.00000000088339222615:0.00000000117647058824
*** Initializing Memory Statistics ***
GPGPU-Sim uArch: performance model initialization complete.
self exe links to: /home/pli11/Desktop/re_test/megakv/delete/run
self exe links to: /home/pli11/Desktop/re_test/megakv/delete/run
10.1
GPGPU-Sim PTX: __cudaRegisterFatBinary, fat_cubin_handle = 1, filename=default
self exe links to: /home/pli11/Desktop/re_test/megakv/delete/run
Running md5sum using "md5sum /home/pli11/Desktop/re_test/megakv/delete/run "
self exe links to: /home/pli11/Desktop/re_test/megakv/delete/run
Extracting specific PTX file named run.1.sm_70.ptx 
GPGPU-Sim PTX: __cudaRegisterFunction _Z11hash_deleteP7ielem_sP8bucket_sii : hostFun 0x0x40246f, fat_cubin_handle = 1
GPGPU-Sim PTX: Parsing run.1.sm_70.ptx
GPGPU-Sim PTX: instruction assembly for function '_Z16hash_delete_nvmbP7ielem_sP8bucket_sii'...   done.
GPGPU-Sim PTX: instruction assembly for function '_Z16hash_delete_nvmoP7ielem_sP8bucket_sii'...   done.
GPGPU-Sim PTX: instruction assembly for function '_Z16hash_delete_nvmuP7ielem_sP8bucket_sii'...   done.
GPGPU-Sim PTX: instruction assembly for function '_Z11kernel_l2wbv'...   done.
GPGPU-Sim PTX: instruction assembly for function '_Z15kernel_l2wb_pctv'...   done.
GPGPU-Sim PTX: instruction assembly for function '_Z11hash_deleteP7ielem_sP8bucket_sii'...   done.
GPGPU-Sim PTX: finished parsing EMBEDDED .ptx file run.1.sm_70.ptx
GPGPU-Sim PTX: loading globals with explicit initializers... 
GPGPU-Sim PTX: finished loading globals (0 bytes total).
GPGPU-Sim PTX: loading constants with explicit initializers...  done.
GPGPU-Sim PTX: Loading PTXInfo from run.1.sm_70.ptx
GPGPU-Sim PTX: Kernel '_Z11hash_deleteP7ielem_sP8bucket_sii' : regs=15, lmem=0, smem=0, cmem=376
GPGPU-Sim PTX: Kernel '_Z15kernel_l2wb_pctv' : regs=8, lmem=0, smem=0, cmem=352
GPGPU-Sim PTX: Kernel '_Z11kernel_l2wbv' : regs=8, lmem=0, smem=0, cmem=352
GPGPU-Sim PTX: Kernel '_Z16hash_delete_nvmuP7ielem_sP8bucket_sii' : regs=17, lmem=0, smem=0, cmem=376
GPGPU-Sim PTX: Kernel '_Z16hash_delete_nvmoP7ielem_sP8bucket_sii' : regs=17, lmem=0, smem=0, cmem=376
GPGPU-Sim PTX: Kernel '_Z16hash_delete_nvmbP7ielem_sP8bucket_sii' : regs=17, lmem=0, smem=0, cmem=376
GPGPU-Sim PTX: __cudaRegisterFunction _Z15kernel_l2wb_pctv : hostFun 0x0x40231f, fat_cubin_handle = 1
GPGPU-Sim PTX: __cudaRegisterFunction _Z11kernel_l2wbv : hostFun 0x0x402225, fat_cubin_handle = 1
GPGPU-Sim PTX: __cudaRegisterFunction _Z16hash_delete_nvmuP7ielem_sP8bucket_sii : hostFun 0x0x402108, fat_cubin_handle = 1
GPGPU-Sim PTX: __cudaRegisterFunction _Z16hash_delete_nvmoP7ielem_sP8bucket_sii : hostFun 0x0x401f95, fat_cubin_handle = 1
GPGPU-Sim PTX: __cudaRegisterFunction _Z16hash_delete_nvmbP7ielem_sP8bucket_sii : hostFun 0x0x401e22, fat_cubin_handle = 1
GPGPU-Sim PTX: cudaStreamCreate
GPGPU-Sim: synchronize waiting for inactive GPU simulation
GPGPU-Sim API: Stream Manager State
GPGPU-Sim API:    stream 1 has 1 operations
GPGPU-Sim API:       0 :  stream operation memcpy host-to-device
GPGPU-Sim: detected inactive GPU simulation thread
GPGPU-Sim PTX: Setting up arguments for 8 bytes starting at 0x7ffed2fc1c38..
GPGPU-Sim PTX: Setting up arguments for 8 bytes starting at 0x7ffed2fc1c30..
GPGPU-Sim PTX: Setting up arguments for 4 bytes starting at 0x7ffed2fc1c2c..
GPGPU-Sim PTX: Setting up arguments for 4 bytes starting at 0x7ffed2fc1c28..

GPGPU-Sim PTX: cudaLaunch for 0x0x401e22 (mode=performance simulation) on stream 1
GPGPU-Sim PTX: finding reconvergence points for '_Z16hash_delete_nvmbP7ielem_sP8bucket_sii'...
GPGPU-Sim PTX: Finding dominators for '_Z16hash_delete_nvmbP7ielem_sP8bucket_sii'...
GPGPU-Sim PTX: Finding immediate dominators for '_Z16hash_delete_nvmbP7ielem_sP8bucket_sii'...
GPGPU-Sim PTX: Finding postdominators for '_Z16hash_delete_nvmbP7ielem_sP8bucket_sii'...
GPGPU-Sim PTX: Finding immediate postdominators for '_Z16hash_delete_nvmbP7ielem_sP8bucket_sii'...
GPGPU-Sim PTX: pre-decoding instructions for '_Z16hash_delete_nvmbP7ielem_sP8bucket_sii'...
GPGPU-Sim PTX: reconvergence points for _Z16hash_delete_nvmbP7ielem_sP8bucket_sii...
GPGPU-Sim PTX:  1 (potential) branch divergence @  PC=0x050 (run.1.sm_70.ptx:37) @%p4 bra BB0_12;
GPGPU-Sim PTX:    immediate post dominator      @  PC=0x280 (run.1.sm_70.ptx:132) ret;
GPGPU-Sim PTX:  2 (potential) branch divergence @  PC=0x0f0 (run.1.sm_70.ptx:60) @%p6 bra BB0_4;
GPGPU-Sim PTX:    immediate post dominator      @  PC=0x110 (run.1.sm_70.ptx:67) mov.u32 %r19, -1;
GPGPU-Sim PTX:  3 (potential) branch divergence @  PC=0x138 (run.1.sm_70.ptx:72) @%p7 bra BB0_7;
GPGPU-Sim PTX:    immediate post dominator      @  PC=0x188 (run.1.sm_70.ptx:90) shr.s32 %r25, %r6, %r3;
GPGPU-Sim PTX:  4 (potential) branch divergence @  PC=0x158 (run.1.sm_70.ptx:77) @%p8 bra BB0_7;
GPGPU-Sim PTX:    immediate post dominator      @  PC=0x188 (run.1.sm_70.ptx:90) shr.s32 %r25, %r6, %r3;
GPGPU-Sim PTX:  5 (potential) branch divergence @  PC=0x1a0 (run.1.sm_70.ptx:93) @%p9 bra BB0_11;
GPGPU-Sim PTX:    immediate post dominator      @  PC=0x260 (run.1.sm_70.ptx:126) cvt.u32.u64%r37, %rd2;
GPGPU-Sim PTX:  6 (potential) branch divergence @  PC=0x208 (run.1.sm_70.ptx:107) @%p10 bra BB0_11;
GPGPU-Sim PTX:    immediate post dominator      @  PC=0x260 (run.1.sm_70.ptx:126) cvt.u32.u64%r37, %rd2;
GPGPU-Sim PTX:  7 (potential) branch divergence @  PC=0x228 (run.1.sm_70.ptx:112) @%p11 bra BB0_11;
GPGPU-Sim PTX:    immediate post dominator      @  PC=0x260 (run.1.sm_70.ptx:126) cvt.u32.u64%r37, %rd2;
GPGPU-Sim PTX:  8 (potential) branch divergence @  PC=0x278 (run.1.sm_70.ptx:129) @%p12 bra BB0_2;
GPGPU-Sim PTX:    immediate post dominator      @  PC=0x280 (run.1.sm_70.ptx:132) ret;
GPGPU-Sim PTX: ... end of reconvergence points for _Z16hash_delete_nvmbP7ielem_sP8bucket_sii
GPGPU-Sim PTX: ... done pre-decoding instructions for '_Z16hash_delete_nvmbP7ielem_sP8bucket_sii'.
GPGPU-Sim PTX: pushing kernel '_Z16hash_delete_nvmbP7ielem_sP8bucket_sii' to stream 1, gridDim= (8,1,1) blockDim = (1024,1,1) 
GPGPU-Sim: synchronize waiting for inactive GPU simulation
GPGPU-Sim API: Stream Manager State
GPGPU-Sim API:    stream 1 has 1 operations
GPGPU-Sim API:       0 :  stream operation kernel
GPGPU-Sim uArch: Shader 0 bind to kernel 1 '_Z16hash_delete_nvmbP7ielem_sP8bucket_sii'
GPGPU-Sim uArch: CTA/core = 2, limited by: threads
GPGPU-Sim: Reconfigure L1 cache to 128KB
GPGPU-Sim uArch: Shader 1 bind to kernel 1 '_Z16hash_delete_nvmbP7ielem_sP8bucket_sii'
GPGPU-Sim uArch: Shader 2 bind to kernel 1 '_Z16hash_delete_nvmbP7ielem_sP8bucket_sii'
GPGPU-Sim uArch: Shader 3 bind to kernel 1 '_Z16hash_delete_nvmbP7ielem_sP8bucket_sii'
GPGPU-Sim uArch: Shader 4 bind to kernel 1 '_Z16hash_delete_nvmbP7ielem_sP8bucket_sii'
GPGPU-Sim uArch: Shader 5 bind to kernel 1 '_Z16hash_delete_nvmbP7ielem_sP8bucket_sii'
GPGPU-Sim uArch: Shader 6 bind to kernel 1 '_Z16hash_delete_nvmbP7ielem_sP8bucket_sii'
GPGPU-Sim uArch: Shader 7 bind to kernel 1 '_Z16hash_delete_nvmbP7ielem_sP8bucket_sii'
Destroy streams for kernel 1: size 0
kernel_name = _Z16hash_delete_nvmbP7ielem_sP8bucket_sii 
kernel_launch_uid = 1 
gpu_sim_cycle = 225465
gpu_sim_insn = 16434862
gpu_ipc =      72.8932
gpu_tot_sim_cycle = 225465
gpu_tot_sim_insn = 16434862
gpu_tot_ipc =      72.8932
gpu_tot_issued_cta = 8
gpu_occupancy = 49.0045% 
gpu_tot_occupancy = 49.0045% 
max_total_param_size = 0
gpu_stall_dramfull = 0
gpu_stall_icnt2sh    = 0
partiton_level_parallism =       1.7623
partiton_level_parallism_total  =       1.7623
partiton_level_parallism_util =       2.2646
partiton_level_parallism_util_total  =       2.2646
L2_BW  =      63.8387 GB/Sec
L2_BW_total  =      63.8387 GB/Sec
gpu_total_sim_rate=53708

========= Core cache stats =========
L1I_cache:
	L1I_total_cache_accesses = 0
	L1I_total_cache_misses = 0
	L1I_total_cache_pending_hits = 0
	L1I_total_cache_reservation_fails = 0
L1D_cache:
	L1D_cache_core[0]: Access = 61446, Miss = 43177, Miss_rate = 0.703, Pending_hits = 0, Reservation_fails = 0
	L1D_cache_core[1]: Access = 61447, Miss = 45571, Miss_rate = 0.742, Pending_hits = 0, Reservation_fails = 0
	L1D_cache_core[2]: Access = 61447, Miss = 45256, Miss_rate = 0.737, Pending_hits = 0, Reservation_fails = 0
	L1D_cache_core[3]: Access = 61449, Miss = 50033, Miss_rate = 0.814, Pending_hits = 0, Reservation_fails = 0
	L1D_cache_core[4]: Access = 61444, Miss = 50604, Miss_rate = 0.824, Pending_hits = 0, Reservation_fails = 0
	L1D_cache_core[5]: Access = 61440, Miss = 49485, Miss_rate = 0.805, Pending_hits = 0, Reservation_fails = 0
	L1D_cache_core[6]: Access = 61446, Miss = 45878, Miss_rate = 0.747, Pending_hits = 0, Reservation_fails = 0
	L1D_cache_core[7]: Access = 61449, Miss = 48958, Miss_rate = 0.797, Pending_hits = 0, Reservation_fails = 0
	L1D_cache_core[8]: Access = 0, Miss = 0, Miss_rate = -nan, Pending_hits = 0, Reservation_fails = 0
	L1D_cache_core[9]: Access = 0, Miss = 0, Miss_rate = -nan, Pending_hits = 0, Reservation_fails = 0
	L1D_cache_core[10]: Access = 0, Miss = 0, Miss_rate = -nan, Pending_hits = 0, Reservation_fails = 0
	L1D_cache_core[11]: Access = 0, Miss = 0, Miss_rate = -nan, Pending_hits = 0, Reservation_fails = 0
	L1D_cache_core[12]: Access = 0, Miss = 0, Miss_rate = -nan, Pending_hits = 0, Reservation_fails = 0
	L1D_cache_core[13]: Access = 0, Miss = 0, Miss_rate = -nan, Pending_hits = 0, Reservation_fails = 0
	L1D_cache_core[14]: Access = 0, Miss = 0, Miss_rate = -nan, Pending_hits = 0, Reservation_fails = 0
	L1D_cache_core[15]: Access = 0, Miss = 0, Miss_rate = -nan, Pending_hits = 0, Reservation_fails = 0
	L1D_cache_core[16]: Access = 0, Miss = 0, Miss_rate = -nan, Pending_hits = 0, Reservation_fails = 0
	L1D_cache_core[17]: Access = 0, Miss = 0, Miss_rate = -nan, Pending_hits = 0, Reservation_fails = 0
	L1D_cache_core[18]: Access = 0, Miss = 0, Miss_rate = -nan, Pending_hits = 0, Reservation_fails = 0
	L1D_cache_core[19]: Access = 0, Miss = 0, Miss_rate = -nan, Pending_hits = 0, Reservation_fails = 0
	L1D_cache_core[20]: Access = 0, Miss = 0, Miss_rate = -nan, Pending_hits = 0, Reservation_fails = 0
	L1D_cache_core[21]: Access = 0, Miss = 0, Miss_rate = -nan, Pending_hits = 0, Reservation_fails = 0
	L1D_cache_core[22]: Access = 0, Miss = 0, Miss_rate = -nan, Pending_hits = 0, Reservation_fails = 0
	L1D_cache_core[23]: Access = 0, Miss = 0, Miss_rate = -nan, Pending_hits = 0, Reservation_fails = 0
	L1D_cache_core[24]: Access = 0, Miss = 0, Miss_rate = -nan, Pending_hits = 0, Reservation_fails = 0
	L1D_cache_core[25]: Access = 0, Miss = 0, Miss_rate = -nan, Pending_hits = 0, Reservation_fails = 0
	L1D_cache_core[26]: Access = 0, Miss = 0, Miss_rate = -nan, Pending_hits = 0, Reservation_fails = 0
	L1D_cache_core[27]: Access = 0, Miss = 0, Miss_rate = -nan, Pending_hits = 0, Reservation_fails = 0
	L1D_cache_core[28]: Access = 0, Miss = 0, Miss_rate = -nan, Pending_hits = 0, Reservation_fails = 0
	L1D_cache_core[29]: Access = 0, Miss = 0, Miss_rate = -nan, Pending_hits = 0, Reservation_fails = 0
	L1D_cache_core[30]: Access = 0, Miss = 0, Miss_rate = -nan, Pending_hits = 0, Reservation_fails = 0
	L1D_cache_core[31]: Access = 0, Miss = 0, Miss_rate = -nan, Pending_hits = 0, Reservation_fails = 0
	L1D_cache_core[32]: Access = 0, Miss = 0, Miss_rate = -nan, Pending_hits = 0, Reservation_fails = 0
	L1D_cache_core[33]: Access = 0, Miss = 0, Miss_rate = -nan, Pending_hits = 0, Reservation_fails = 0
	L1D_cache_core[34]: Access = 0, Miss = 0, Miss_rate = -nan, Pending_hits = 0, Reservation_fails = 0
	L1D_cache_core[35]: Access = 0, Miss = 0, Miss_rate = -nan, Pending_hits = 0, Reservation_fails = 0
	L1D_cache_core[36]: Access = 0, Miss = 0, Miss_rate = -nan, Pending_hits = 0, Reservation_fails = 0
	L1D_cache_core[37]: Access = 0, Miss = 0, Miss_rate = -nan, Pending_hits = 0, Reservation_fails = 0
	L1D_cache_core[38]: Access = 0, Miss = 0, Miss_rate = -nan, Pending_hits = 0, Reservation_fails = 0
	L1D_cache_core[39]: Access = 0, Miss = 0, Miss_rate = -nan, Pending_hits = 0, Reservation_fails = 0
	L1D_cache_core[40]: Access = 0, Miss = 0, Miss_rate = -nan, Pending_hits = 0, Reservation_fails = 0
	L1D_cache_core[41]: Access = 0, Miss = 0, Miss_rate = -nan, Pending_hits = 0, Reservation_fails = 0
	L1D_cache_core[42]: Access = 0, Miss = 0, Miss_rate = -nan, Pending_hits = 0, Reservation_fails = 0
	L1D_cache_core[43]: Access = 0, Miss = 0, Miss_rate = -nan, Pending_hits = 0, Reservation_fails = 0
	L1D_cache_core[44]: Access = 0, Miss = 0, Miss_rate = -nan, Pending_hits = 0, Reservation_fails = 0
	L1D_cache_core[45]: Access = 0, Miss = 0, Miss_rate = -nan, Pending_hits = 0, Reservation_fails = 0
	L1D_cache_core[46]: Access = 0, Miss = 0, Miss_rate = -nan, Pending_hits = 0, Reservation_fails = 0
	L1D_cache_core[47]: Access = 0, Miss = 0, Miss_rate = -nan, Pending_hits = 0, Reservation_fails = 0
	L1D_cache_core[48]: Access = 0, Miss = 0, Miss_rate = -nan, Pending_hits = 0, Reservation_fails = 0
	L1D_cache_core[49]: Access = 0, Miss = 0, Miss_rate = -nan, Pending_hits = 0, Reservation_fails = 0
	L1D_cache_core[50]: Access = 0, Miss = 0, Miss_rate = -nan, Pending_hits = 0, Reservation_fails = 0
	L1D_cache_core[51]: Access = 0, Miss = 0, Miss_rate = -nan, Pending_hits = 0, Reservation_fails = 0
	L1D_cache_core[52]: Access = 0, Miss = 0, Miss_rate = -nan, Pending_hits = 0, Reservation_fails = 0
	L1D_cache_core[53]: Access = 0, Miss = 0, Miss_rate = -nan, Pending_hits = 0, Reservation_fails = 0
	L1D_cache_core[54]: Access = 0, Miss = 0, Miss_rate = -nan, Pending_hits = 0, Reservation_fails = 0
	L1D_cache_core[55]: Access = 0, Miss = 0, Miss_rate = -nan, Pending_hits = 0, Reservation_fails = 0
	L1D_cache_core[56]: Access = 0, Miss = 0, Miss_rate = -nan, Pending_hits = 0, Reservation_fails = 0
	L1D_cache_core[57]: Access = 0, Miss = 0, Miss_rate = -nan, Pending_hits = 0, Reservation_fails = 0
	L1D_cache_core[58]: Access = 0, Miss = 0, Miss_rate = -nan, Pending_hits = 0, Reservation_fails = 0
	L1D_cache_core[59]: Access = 0, Miss = 0, Miss_rate = -nan, Pending_hits = 0, Reservation_fails = 0
	L1D_cache_core[60]: Access = 0, Miss = 0, Miss_rate = -nan, Pending_hits = 0, Reservation_fails = 0
	L1D_cache_core[61]: Access = 0, Miss = 0, Miss_rate = -nan, Pending_hits = 0, Reservation_fails = 0
	L1D_cache_core[62]: Access = 0, Miss = 0, Miss_rate = -nan, Pending_hits = 0, Reservation_fails = 0
	L1D_cache_core[63]: Access = 0, Miss = 0, Miss_rate = -nan, Pending_hits = 0, Reservation_fails = 0
	L1D_cache_core[64]: Access = 0, Miss = 0, Miss_rate = -nan, Pending_hits = 0, Reservation_fails = 0
	L1D_cache_core[65]: Access = 0, Miss = 0, Miss_rate = -nan, Pending_hits = 0, Reservation_fails = 0
	L1D_cache_core[66]: Access = 0, Miss = 0, Miss_rate = -nan, Pending_hits = 0, Reservation_fails = 0
	L1D_cache_core[67]: Access = 0, Miss = 0, Miss_rate = -nan, Pending_hits = 0, Reservation_fails = 0
	L1D_cache_core[68]: Access = 0, Miss = 0, Miss_rate = -nan, Pending_hits = 0, Reservation_fails = 0
	L1D_cache_core[69]: Access = 0, Miss = 0, Miss_rate = -nan, Pending_hits = 0, Reservation_fails = 0
	L1D_cache_core[70]: Access = 0, Miss = 0, Miss_rate = -nan, Pending_hits = 0, Reservation_fails = 0
	L1D_cache_core[71]: Access = 0, Miss = 0, Miss_rate = -nan, Pending_hits = 0, Reservation_fails = 0
	L1D_cache_core[72]: Access = 0, Miss = 0, Miss_rate = -nan, Pending_hits = 0, Reservation_fails = 0
	L1D_cache_core[73]: Access = 0, Miss = 0, Miss_rate = -nan, Pending_hits = 0, Reservation_fails = 0
	L1D_cache_core[74]: Access = 0, Miss = 0, Miss_rate = -nan, Pending_hits = 0, Reservation_fails = 0
	L1D_cache_core[75]: Access = 0, Miss = 0, Miss_rate = -nan, Pending_hits = 0, Reservation_fails = 0
	L1D_cache_core[76]: Access = 0, Miss = 0, Miss_rate = -nan, Pending_hits = 0, Reservation_fails = 0
	L1D_cache_core[77]: Access = 0, Miss = 0, Miss_rate = -nan, Pending_hits = 0, Reservation_fails = 0
	L1D_cache_core[78]: Access = 0, Miss = 0, Miss_rate = -nan, Pending_hits = 0, Reservation_fails = 0
	L1D_cache_core[79]: Access = 0, Miss = 0, Miss_rate = -nan, Pending_hits = 0, Reservation_fails = 0
	L1D_total_cache_accesses = 491568
	L1D_total_cache_misses = 378962
	L1D_total_cache_miss_rate = 0.7709
	L1D_total_cache_pending_hits = 0
	L1D_total_cache_reservation_fails = 0
	L1D_cache_data_port_util = 0.065
	L1D_cache_fill_port_util = 0.191
L1C_cache:
	L1C_total_cache_accesses = 0
	L1C_total_cache_misses = 0
	L1C_total_cache_pending_hits = 0
	L1C_total_cache_reservation_fails = 0
L1T_cache:
	L1T_total_cache_accesses = 0
	L1T_total_cache_misses = 0
	L1T_total_cache_pending_hits = 0
	L1T_total_cache_reservation_fails = 0

Total_core_cache_stats:
	Total_core_cache_stats_breakdown[GLOBAL_ACC_R][HIT] = 83372
	Total_core_cache_stats_breakdown[GLOBAL_ACC_R][HIT_RESERVED] = 0
	Total_core_cache_stats_breakdown[GLOBAL_ACC_R][MISS] = 186845
	Total_core_cache_stats_breakdown[GLOBAL_ACC_R][RESERVATION_FAIL] = 0
	Total_core_cache_stats_breakdown[GLOBAL_ACC_R][SECTOR_MISS] = 155815
	Total_core_cache_stats_breakdown[LOCAL_ACC_R][HIT] = 0
	Total_core_cache_stats_breakdown[LOCAL_ACC_R][HIT_RESERVED] = 0
	Total_core_cache_stats_breakdown[LOCAL_ACC_R][MISS] = 0
	Total_core_cache_stats_breakdown[LOCAL_ACC_R][RESERVATION_FAIL] = 0
	Total_core_cache_stats_breakdown[LOCAL_ACC_R][SECTOR_MISS] = 0
	Total_core_cache_stats_breakdown[CONST_ACC_R][HIT] = 0
	Total_core_cache_stats_breakdown[CONST_ACC_R][HIT_RESERVED] = 0
	Total_core_cache_stats_breakdown[CONST_ACC_R][MISS] = 0
	Total_core_cache_stats_breakdown[CONST_ACC_R][RESERVATION_FAIL] = 0
	Total_core_cache_stats_breakdown[CONST_ACC_R][SECTOR_MISS] = 0
	Total_core_cache_stats_breakdown[TEXTURE_ACC_R][HIT] = 0
	Total_core_cache_stats_breakdown[TEXTURE_ACC_R][HIT_RESERVED] = 0
	Total_core_cache_stats_breakdown[TEXTURE_ACC_R][MISS] = 0
	Total_core_cache_stats_breakdown[TEXTURE_ACC_R][RESERVATION_FAIL] = 0
	Total_core_cache_stats_breakdown[TEXTURE_ACC_R][SECTOR_MISS] = 0
	Total_core_cache_stats_breakdown[GLOBAL_ACC_W][HIT] = 29234
	Total_core_cache_stats_breakdown[GLOBAL_ACC_W][HIT_RESERVED] = 0
	Total_core_cache_stats_breakdown[GLOBAL_ACC_W][MISS] = 18505
	Total_core_cache_stats_breakdown[GLOBAL_ACC_W][RESERVATION_FAIL] = 0
	Total_core_cache_stats_breakdown[GLOBAL_ACC_W][SECTOR_MISS] = 17797
	Total_core_cache_stats_breakdown[LOCAL_ACC_W][HIT] = 0
	Total_core_cache_stats_breakdown[LOCAL_ACC_W][HIT_RESERVED] = 0
	Total_core_cache_stats_breakdown[LOCAL_ACC_W][MISS] = 0
	Total_core_cache_stats_breakdown[LOCAL_ACC_W][RESERVATION_FAIL] = 0
	Total_core_cache_stats_breakdown[LOCAL_ACC_W][SECTOR_MISS] = 0
	Total_core_cache_stats_breakdown[L1_WRBK_ACC][HIT] = 0
	Total_core_cache_stats_breakdown[L1_WRBK_ACC][HIT_RESERVED] = 0
	Total_core_cache_stats_breakdown[L1_WRBK_ACC][MISS] = 0
	Total_core_cache_stats_breakdown[L1_WRBK_ACC][RESERVATION_FAIL] = 0
	Total_core_cache_stats_breakdown[L1_WRBK_ACC][SECTOR_MISS] = 0
	Total_core_cache_stats_breakdown[L2_WRBK_ACC][HIT] = 0
	Total_core_cache_stats_breakdown[L2_WRBK_ACC][HIT_RESERVED] = 0
	Total_core_cache_stats_breakdown[L2_WRBK_ACC][MISS] = 0
	Total_core_cache_stats_breakdown[L2_WRBK_ACC][RESERVATION_FAIL] = 0
	Total_core_cache_stats_breakdown[L2_WRBK_ACC][SECTOR_MISS] = 0
	Total_core_cache_stats_breakdown[INST_ACC_R][HIT] = 0
	Total_core_cache_stats_breakdown[INST_ACC_R][HIT_RESERVED] = 0
	Total_core_cache_stats_breakdown[INST_ACC_R][MISS] = 0
	Total_core_cache_stats_breakdown[INST_ACC_R][RESERVATION_FAIL] = 0
	Total_core_cache_stats_breakdown[INST_ACC_R][SECTOR_MISS] = 0
	Total_core_cache_stats_breakdown[L1_WR_ALLOC_R][HIT] = 0
	Total_core_cache_stats_breakdown[L1_WR_ALLOC_R][HIT_RESERVED] = 0
	Total_core_cache_stats_breakdown[L1_WR_ALLOC_R][MISS] = 0
	Total_core_cache_stats_breakdown[L1_WR_ALLOC_R][RESERVATION_FAIL] = 0
	Total_core_cache_stats_breakdown[L1_WR_ALLOC_R][SECTOR_MISS] = 0
	Total_core_cache_stats_breakdown[L2_WR_ALLOC_R][HIT] = 0
	Total_core_cache_stats_breakdown[L2_WR_ALLOC_R][HIT_RESERVED] = 0
	Total_core_cache_stats_breakdown[L2_WR_ALLOC_R][MISS] = 0
	Total_core_cache_stats_breakdown[L2_WR_ALLOC_R][RESERVATION_FAIL] = 0
	Total_core_cache_stats_breakdown[L2_WR_ALLOC_R][SECTOR_MISS] = 0
	Total_core_cache_stats_breakdown[GLOBAL_ACC_R][TOTAL_ACCESS] = 426032
	Total_core_cache_stats_breakdown[GLOBAL_ACC_W][TOTAL_ACCESS] = 65536

Total_core_cache_fail_stats:
Shader 0 warp_id issue ditsribution:
warp_id:
0, 1, 2, 3, 4, 5, 6, 7, 8, 9, 10, 11, 12, 13, 14, 15, 16, 17, 18, 19, 20, 21, 22, 23, 24, 25, 26, 27, 28, 29, 30, 31, 
distro:
2704, 2704, 2704, 2704, 2704, 2704, 2704, 2704, 2704, 2704, 2704, 2704, 2704, 2704, 2704, 2704, 2704, 2704, 2704, 2704, 2704, 2704, 2704, 2704, 2727, 2704, 2704, 2704, 2704, 2727, 2704, 2704, 
gpgpu_n_tot_thrd_icount = 22164416
gpgpu_n_tot_w_icount = 692638
gpgpu_n_stall_shd_mem = 327620
gpgpu_n_mem_read_local = 0
gpgpu_n_mem_write_local = 0
gpgpu_n_mem_read_global = 331808
gpgpu_n_mem_write_global = 65536
gpgpu_n_mem_texture = 0
gpgpu_n_mem_const = 0
gpgpu_n_load_insn  = 2883980
gpgpu_n_store_insn = 65536
gpgpu_n_shmem_insn = 0
gpgpu_n_sstarr_insn = 0
gpgpu_n_tex_insn = 0
gpgpu_n_const_mem_insn = 0
gpgpu_n_param_mem_insn = 32768
gpgpu_n_shmem_bkconflict = 0
gpgpu_n_cache_bkconflict = 0
gpgpu_n_intrawarp_mshr_merge = 0
gpgpu_n_cmem_portconflict = 0
gpgpu_stall_shd_mem[c_mem][resource_stall] = 0
gpgpu_stall_shd_mem[s_mem][bk_conf] = 0
gpgpu_stall_shd_mem[gl_mem][resource_stall] = 327620
gpgpu_stall_shd_mem[gl_mem][coal_stall] = 0
gpgpu_stall_shd_mem[gl_mem][data_port_stall] = 0
gpu_reg_bank_conflict_stalls = 0
Warp Occupancy Distribution:
Stall:11527	W0_Idle:97078	W0_Scoreboard:6133269	W1:180	W2:0	W3:216	W4:196392	W5:0	W6:0	W7:0	W8:234	W9:0	W10:0	W11:0	W12:0	W13:0	W14:0	W15:0	W16:0	W17:0	W18:0	W19:0	W20:0	W21:0	W22:0	W23:0	W24:0	W25:0	W26:0	W27:0	W28:0	W29:0	W30:0	W31:0	W32:495616
single_issue_nums: WS0:173148	WS1:173125	WS2:173171	WS3:173194	
dual_issue_nums: WS0:0	WS1:0	WS2:0	WS3:0	
traffic_breakdown_coretomem[GLOBAL_ACC_R] = 2654464 {8:331808,}
traffic_breakdown_coretomem[GLOBAL_ACC_W] = 2621440 {40:65536,}
traffic_breakdown_memtocore[GLOBAL_ACC_R] = 13272320 {40:331808,}
traffic_breakdown_memtocore[GLOBAL_ACC_W] = 524288 {8:65536,}
maxmflatency = 1092 
max_icnt2mem_latency = 26 
maxmrqlatency = 317 
max_icnt2sh_latency = 53 
averagemflatency = 474 
avg_icnt2mem_latency = 23 
avg_mrq_latency = 8 
avg_icnt2sh_latency = 2 
mrq_lat_table:111198 	56672 	1164 	1775 	10668 	15477 	5783 	887 	9 	0 	0 	0 	0 	0 	0 	0 	0 	0 	0 	0 	0 	0 	0 	0 	0 	0 	0 	0 	0 	0 	0 	0 	
dq_lat_table:0 	0 	0 	0 	0 	0 	0 	0 	0 	0 	0 	0 	0 	0 	0 	0 	0 	0 	0 	0 	0 	0 	0 	0 	0 	0 	0 	0 	0 	0 	0 	0 	
mf_lat_table:0 	0 	0 	0 	0 	0 	0 	193706 	15982 	187651 	5 	0 	0 	0 	0 	0 	0 	0 	0 	0 	0 	0 	0 	0 	0 	0 	0 	0 	0 	0 	0 	0 	
icnt2mem_lat_table:0 	0 	0 	0 	397344 	0 	0 	0 	0 	0 	0 	0 	0 	0 	0 	0 	0 	0 	0 	0 	0 	0 	0 	0 	
icnt2sh_lat_table:0 	367708 	27907 	1650 	65 	14 	0 	0 	0 	0 	0 	0 	0 	0 	0 	0 	0 	0 	0 	0 	0 	0 	0 	0 	
mf_lat_pw_table:0 	0 	0 	0 	0 	0 	0 	3 	318 	119 	0 	0 	0 	0 	0 	0 	0 	0 	0 	0 	0 	0 	0 	0 	0 	0 	0 	0 	0 	0 	0 	0 	
maximum concurrent accesses to same row:
dram[0]:         3         3         3         4         3         3         4         4         4         8         9        12         3         3         3         3 
dram[1]:         3         3         3         3         3         5        10         4         5         6         6        14         6         3         3         4 
dram[2]:         4         3         3         3         3         3         4         6         4         8        11         5         3         3         3         3 
dram[3]:         3         6         3         3         3         3         4         3         8         7         9         7         3         3         3         3 
dram[4]:         3         3         3         3         3         3         3         4         6         4         9         9         3         3         3         3 
dram[5]:         3         3         3         3         4         3         4         6         9         5         6         8         3         3         3         3 
dram[6]:         3         3         3         3         3         3         4         4         4        16         8         5         3         3         3         3 
dram[7]:         4         3         3         3         3         3         3         3         6         4        10         6         3         3         3         3 
dram[8]:         3         3         3         3         3         3         4         7         4         8         6         7         3         3         4         3 
dram[9]:         3         3         3         3         3         3         5         5        11         8        10        11         3         3         3         3 
dram[10]:         3         3         3         3         3         3         3        11         6         5         6        13         3         3         3         3 
dram[11]:         3         3         3         3         3         3         4         3         5        10        15        10         3         3         3         3 
dram[12]:         3         3         3         3         3         3         3         7         9         6        16        10         3         3         3         3 
dram[13]:         3         3         3         3         3         3         6         3         6         7         8         4         3         3         3         3 
dram[14]:         3         3         6         3         3         3         4         4         6         5         8         9         3         3         3         4 
dram[15]:         3         3         3         6         3         3         4         4         7         8         5         5         3         3         3         3 
dram[16]:         3         3         3         3         3         3         4         5        12        10         8         8         3         4         3         3 
dram[17]:         3         3         4         3         3         3         4         3         4         8         8         5         3         3         3         3 
dram[18]:         3         3         3         4         3         3         3         5         7         8         5        10         3         4         3         3 
dram[19]:         3         4         3         3         3         3         6         3        10         6        12         6         3         3         3         3 
dram[20]:         3         3         3         3         3         3         7         4         5        13        13         9         3         3         3         3 
dram[21]:         5         3         3         3         3         3         4         5         4         5         7         6         3         3         6         3 
dram[22]:         3         3         3         3         4         4         8         4        12         8         9         5         3         3         3         3 
dram[23]:         3         3         3         3         3         3         4         3         5         6         9        11         3         3         3         3 
dram[24]:         3         3         3         3         3         3         3        12         3         7         8        17         3         3         3         3 
dram[25]:         3         6         3         3         3         3         3         4         4         8        10         7         3         3         3         3 
dram[26]:         5         3         3         3         4         3         5         6         8         5        12        10         3         3         3         3 
dram[27]:         3         3         3         3         3         3         4         3         6         8         6        11         3         3         3         3 
dram[28]:         3         3         3         3         3         4         4         6        11         7        13         7         3         3         3         3 
dram[29]:         3         3         3         3         3         3         7         4         4         5         9        10         3         3         3         3 
dram[30]:         3         3         3         3         3         3         3         5         6        14         7         4         3         3         3         3 
dram[31]:         3         3         3         3         3         3         4         3         8         5        17         8         3         4         3         3 
maximum service time to same row:
dram[0]:      6938      8133     10632      5872      7609      8911      7679     11737      7828      6130      9028      9111      8252      6643      9107      8996 
dram[1]:      7193      5859     10828     11176      7189      6066     10478      7351      8147      8336      5908      8754      7910      7096      6078      8119 
dram[2]:      7246      6234      8059      6893      7494     10928      6809      7863      8761      5846      9494     14143      6421     11802      8344      8932 
dram[3]:     11404      9356      8805      8334      8057      7848      7947      9404     11106      6505      5907      8087      8851     11023     12861     12728 
dram[4]:      6306      5867     10391     10279      8136      6417      8147      5887      8647      9328      6355     12161      7191      9529      8360      9028 
dram[5]:      6645      8821      6347      8035      7435      9005      7335      9981      6474      6484      7555      7692      6269      8992     10632     10928 
dram[6]:      8901      6609      5976      8552      6628      8253      6708      9587      8333      6264      7533      6878      7717      5981      6713      9699 
dram[7]:      8032      8975      8083      6015      8575      9185      7618      8887      5840     10451      8015      6527      8784      9583      6978      8457 
dram[8]:      7140      5925      9377      9555      8240      6990      6174      9116      8096      6662      6825      9987      7692      5888      7820      6274 
dram[9]:      5816     10003      9292      8124      8276      8209      6147      5855      8996      5847      8268      7257      6591      9434     10830     13194 
dram[10]:      5851      5835      6138      8754      8461     10765      9453      7964      8629      7781     10070      7083      7593      9629     10117     11650 
dram[11]:      8878      8143      7720      7722     10035      5856     13192      8178      5846      8381      6198      8507     11717      6828     10267      8090 
dram[12]:      7671      6748      7530     15710      6432      8012      7665      7440      9047      9148      8563     15726      5859      7908      9688     10276 
dram[13]:      7271      7046      8269      8800      7441      6125      7700     10369      5943      8750      7583      6595      7558      9701      5844      7297 
dram[14]:      8170      7983      8375      9900      7350     10640      5863      8411      7524      5871     10819      8276      5835      9562      8414      9469 
dram[15]:      5891      6369      7734      9218      7758      5940      8304      6493      6098      7422      8294      5843      7744      9506      7333     10466 
dram[16]:      8125      6692     10607      9850     11441      6998      5827      8025      6146      5852      6118     10723      5891      6922      7623      6588 
dram[17]:     10900      7956     12175     17413      7044      8317     15368      8268      7200      5890      5880      8140      6402      6887      7336      5811 
dram[18]:      8660      9550      8657      8077      9050      7987      9766      8764      7334      7884     12072      9092      6177      8059      7862      8445 
dram[19]:      7306      8513     13607     10677      7280      9739      8390      6303     10514      5843     10740      5976     11457      5831      5851      8821 
dram[20]:      6492      8336      8903      9983      8627      8221      6231      6898      7372      8119      6103      7627      8720      8400      7305      5896 
dram[21]:     12915      6788      5816      6310      5882     11125      6663      6611      8452     16759      9983      7563      6940     10342      9183      7350 
dram[22]:     10733      6382      6435      8126      9220     13247      9818      6448      7402      5935      6483      9296      7197     10856      7250      8722 
dram[23]:      8875      8702     10929      5931     12119      7342      7525      7242      9204      8003      5976      5891      5862      5963     11796      9364 
dram[24]:      6605     10940      7482     11041     11310      9452      8412      8143      8961      9508      7894     11500     15162     10507      5984      6792 
dram[25]:     12171      6038      8429     12283      6379      5856     10904      8221     11096     10277      8106      6458      5866      8838      8264      8168 
dram[26]:      6816      6003      9302      7142     10108      7646     10708      5859      8595      9525      7641     11480      7498     12123      9323      6143 
dram[27]:      6567      6571      6768      7446      6556     14961      9272      9636      7736      6419      7371     10102     11741     17456     10573      8920 
dram[28]:      6910      5928      7158     10750      6521     10043      7861      7081      5839      8405      6756      8536      5908      8160      6347      6891 
dram[29]:      7607     12564      8186     12352      7973      5874      5876      8343      8685      8964      5988      6543      8061      5985      6797      8217 
dram[30]:      8905      6681      7277      8005      6616      6393      8274     11731      6874     11916      6766     10600      7356      5884     10477      8562 
dram[31]:      6069      9834      7490      5892     10414     10529      8063      8539      7089     11168      7313      6451      5943      6382      8705      9153 
average row accesses per activate:
dram[0]:  1.155425  1.158333  1.205882  1.120000  1.120219  1.133531  1.141333  1.142857  1.195266  1.256493  1.221311  1.289720  1.140260  1.104000  1.239382  1.177606 
dram[1]:  1.111922  1.119186  1.168712  1.143662  1.120787  1.108635  1.223827  1.130542  1.184573  1.179625  1.148402  1.231928  1.149425  1.124590  1.202206  1.129032 
dram[2]:  1.142857  1.193309  1.086076  1.173410  1.167235  1.098462  1.227119  1.154040  1.188406  1.209770  1.242991  1.197531  1.068433  1.172881  1.131054  1.126801 
dram[3]:  1.123418  1.141210  1.149701  1.191919  1.152299  1.188088  1.111628  1.126801  1.176812  1.168831  1.238220  1.180451  1.164179  1.174757  1.145015  1.130952 
dram[4]:  1.132948  1.150273  1.146497  1.163498  1.171975  1.153846  1.190769  1.220641  1.169231  1.248344  1.302671  1.315217  1.238434  1.195122  1.197917  1.098315 
dram[5]:  1.168937  1.115819  1.123116  1.145833  1.130653  1.128205  1.198795  1.190751  1.195929  1.205056  1.158986  1.251592  1.087404  1.082500  1.186335  1.148410 
dram[6]:  1.201987  1.131148  1.176136  1.218045  1.120787  1.198582  1.127500  1.216117  1.287313  1.167920  1.282958  1.195251  1.166113  1.081967  1.190000  1.093151 
dram[7]:  1.205387  1.164474  1.156522  1.128767  1.148459  1.200000  1.164740  1.174847  1.205047  1.176471  1.236527  1.266667  1.175258  1.166667  1.140449  1.182796 
dram[8]:  1.138138  1.111399  1.172804  1.138462  1.170659  1.145349  1.167598  1.185897  1.219512  1.238372  1.181176  1.241379  1.094872  1.187919  1.174757  1.144970 
dram[9]:  1.126100  1.114973  1.095109  1.116477  1.114504  1.240157  1.187135  1.140584  1.205521  1.163683  1.227979  1.217033  1.155172  1.178571  1.175627  1.200000 
dram[10]:  1.147309  1.183230  1.152493  1.082725  1.110236  1.114441  1.224719  1.186186  1.230769  1.189911  1.148438  1.278788  1.240143  1.153374  1.176282  1.139394 
dram[11]:  1.191638  1.125000  1.230216  1.150470  1.107817  1.091864  1.235294  1.174312  1.154856  1.200565  1.203209  1.285211  1.197368  1.156522  1.160000  1.156352 
dram[12]:  1.121813  1.109920  1.116809  1.139932  1.126761  1.135447  1.165625  1.183674  1.155340  1.179221  1.250000  1.279743  1.116162  1.147059  1.123563  1.186567 
dram[13]:  1.134503  1.160279  1.164038  1.141509  1.146789  1.185811  1.229730  1.158940  1.197943  1.241722  1.179803  1.175711  1.156695  1.151976  1.126027  1.199357 
dram[14]:  1.151335  1.154088  1.120321  1.158416  1.179739  1.141566  1.116883  1.175000  1.219512  1.145882  1.236311  1.194301  1.123684  1.149813  1.185668  1.152174 
dram[15]:  1.165289  1.157895  1.146789  1.193662  1.121827  1.142857  1.163743  1.254125  1.269795  1.162371  1.217910  1.143193  1.150442  1.150160  1.184211  1.130435 
dram[16]:  1.108504  1.104000  1.147309  1.195652  1.157556  1.121739  1.111628  1.204334  1.209945  1.181159  1.255952  1.162095  1.153846  1.138728  1.153153  1.168919 
dram[17]:  1.197880  1.109375  1.191781  1.133106  1.127717  1.159639  1.222603  1.113158  1.210826  1.153034  1.213699  1.170115  1.108571  1.143617  1.166667  1.105392 
dram[18]:  1.167939  1.165217  1.169811  1.219858  1.167702  1.152174  1.171521  1.246479  1.239482  1.187328  1.176781  1.222222  1.160656  1.187702  1.167173  1.112994 
dram[19]:  1.162500  1.151007  1.142857  1.175182  1.127027  1.152318  1.162242  1.173410  1.182320  1.176617  1.224868  1.244186  1.142442  1.142091  1.140496  1.196078 
dram[20]:  1.117302  1.133333  1.253012  1.131902  1.125000  1.122616  1.170588  1.207668  1.200000  1.297872  1.237960  1.270270  1.166102  1.138138  1.137097  1.159544 
dram[21]:  1.253061  1.134670  1.121884  1.134048  1.170088  1.169329  1.116162  1.169761  1.192201  1.204678  1.229050  1.223433  1.148867  1.140575  1.164179  1.144022 
dram[22]:  1.167203  1.224490  1.196141  1.130194  1.130000  1.113350  1.179710  1.095012  1.172749  1.192737  1.218750  1.248503  1.096104  1.123457  1.151613  1.149068 
dram[23]:  1.180064  1.119891  1.101639  1.125000  1.111111  1.186885  1.139785  1.156977  1.250814  1.228669  1.201511  1.222528  1.123153  1.158385  1.160819  1.119534 
dram[24]:  1.142857  1.128947  1.188854  1.177778  1.176895  1.173077  1.174342  1.228477  1.223270  1.246201  1.229774  1.202857  1.160656  1.095368  1.077889  1.138504 
dram[25]:  1.159091  1.191419  1.154799  1.096515  1.116618  1.173252  1.115090  1.196970  1.157609  1.244681  1.229974  1.177986  1.114504  1.134969  1.221818  1.117994 
dram[26]:  1.187279  1.124668  1.148368  1.184713  1.125731  1.183946  1.210000  1.116705  1.243750  1.178667  1.246106  1.222528  1.165663  1.133523  1.133531  1.124668 
dram[27]:  1.097938  1.181538  1.250000  1.096447  1.176966  1.154839  1.128947  1.158358  1.204918  1.189504  1.142857  1.247761  1.218254  1.177258  1.119444  1.120482 
dram[28]:  1.207921  1.191419  1.235294  1.220779  1.106061  1.222615  1.157738  1.169279  1.312704  1.203438  1.218905  1.218667  1.104878  1.107895  1.097368  1.094595 
dram[29]:  1.093525  1.103858  1.122951  1.210145  1.142857  1.148352  1.188791  1.162162  1.201149  1.135870  1.178192  1.261765  1.184127  1.133880  1.145897  1.144543 
dram[30]:  1.166667  1.145401  1.090487  1.119318  1.175000  1.122667  1.161094  1.085714  1.195592  1.276316  1.225641  1.197943  1.098701  1.131514  1.104816  1.184466 
dram[31]:  1.116279  1.110170  1.126722  1.148688  1.129310  1.113497  1.154286  1.148571  1.207692  1.232836  1.197917  1.252174  1.135734  1.191489  1.161616  1.232143 
average row locality = 203633/174677 = 1.165769
number of total memory accesses made:
dram[0]:         0         0         0         0         0         0         0         0         0         0         0         0         0         0         0         0 
dram[1]:         0         0         0         0         0         0         0         0         0         0         0         0         0         0         0         0 
dram[2]:         0         0         0         0         0         0         0         0         0         0         0         0         0         0         0         0 
dram[3]:         0         0         0         0         0         0         0         0         0         0         0         0         0         0         0         0 
dram[4]:         0         0         0         0         0         0         0         0         0         0         0         0         0         0         0         0 
dram[5]:         0         0         0         0         0         0         0         0         0         0         0         0         0         0         0         0 
dram[6]:         0         0         0         0         0         0         0         0         0         0         0         0         0         0         0         0 
dram[7]:         0         0         0         0         0         0         0         0         0         0         0         0         0         0         0         0 
dram[8]:         0         0         0         0         0         0         0         0         0         0         0         0         0         0         0         0 
dram[9]:         0         0         0         0         0         0         0         0         0         0         0         0         0         0         0         0 
dram[10]:         0         0         0         0         0         0         0         0         0         0         0         0         0         0         0         0 
dram[11]:         0         0         0         0         0         0         0         0         0         0         0         0         0         0         0         0 
dram[12]:         0         0         0         0         0         0         0         0         0         0         0         0         0         0         0         0 
dram[13]:         0         0         0         0         0         0         0         0         0         0         0         0         0         0         0         0 
dram[14]:         0         0         0         0         0         0         0         0         0         0         0         0         0         0         0         0 
dram[15]:         0         0         0         0         0         0         0         0         0         0         0         0         0         0         0         0 
dram[16]:         0         0         0         0         0         0         0         0         0         0         0         0         0         0         0         0 
dram[17]:         0         0         0         0         0         0         0         0         0         0         0         0         0         0         0         0 
dram[18]:         0         0         0         0         0         0         0         0         0         0         0         0         0         0         0         0 
dram[19]:         0         0         0         0         0         0         0         0         0         0         0         0         0         0         0         0 
dram[20]:         0         0         0         0         0         0         0         0         0         0         0         0         0         0         0         0 
dram[21]:         0         0         0         0         0         0         0         0         0         0         0         0         0         0         0         0 
dram[22]:         0         0         0         0         0         0         0         0         0         0         0         0         0         0         0         0 
dram[23]:         0         0         0         0         0         0         0         0         0         0         0         0         0         0         0         0 
dram[24]:         0         0         0         0         0         0         0         0         0         0         0         0         0         0         0         0 
dram[25]:         0         0         0         0         0         0         0         0         0         0         0         0         0         0         0         0 
dram[26]:         0         0         0         0         0         0         0         0         0         0         0         0         0         0         0         0 
dram[27]:         0         0         0         0         0         0         0         0         0         0         0         0         0         0         0         0 
dram[28]:         0         0         0         0         0         0         0         0         0         0         0         0         0         0         0         0 
dram[29]:         0         0         0         0         0         0         0         0         0         0         0         0         0         0         0         0 
dram[30]:         0         0         0         0         0         0         0         0         0         0         0         0         0         0         0         0 
dram[31]:         0         0         0         0         0         0         0         0         0         0         0         0         0         0         0         0 
total accesses: 0
min_bank_accesses = 0!
min_chip_accesses = 0!
number of total read accesses:
dram[0]:       262       278       218       298       272       254       292       294       280       270       318       296       292       276       214       202 
dram[1]:       304       256       254       270       266       264       232       310       300       304       356       294       266       228       218       280 
dram[2]:       240       214       286       270       228       238       248       308       284       292       284       342       322       230       264       260 
dram[3]:       236       264       256       236       270       252       328       266       284       314       336       334       208       242       252       252 
dram[4]:       260       280       240       204       244       230       262       232       316       262       312       256       232       228       230       260 
dram[5]:       286       262       298       256       302       264       272       280       330       300       354       282       282       288       254       216 
dram[6]:       242       274       276       216       266       226       306       224       238       326       286       320       234       308       238       266 
dram[7]:       238       236       266       274       272       240       274       256       262       308       294       286       228       266       270       220 
dram[8]:       252       286       276       246       260       262       284       252       280       300       354       284       284       236       242       258 
dram[9]:       256       278       268       262       292       210       278       292       274       314       336       314       268       262       218       244 
dram[10]:       270       254       262       296       282       272       222       270       292       280       308       302       230       250       244       250 
dram[11]:       228       264       228       244       274       278       214       260       304       298       318       258       242       266       250       236 
dram[12]:       264       276       260       222       268       262       254       276       332       312       306       286       294       260       260       212 
dram[13]:       258       222       246       242       250       234       248       240       328       262       338       322       270       252       274       248 
dram[14]:       258       244       278       234       240       254       292       258       280       336       304       326       284       204       242       246 
dram[15]:       282       234       250       226       294       250       268       260       306       316       292       342       258       240       240       242 
dram[16]:       252       276       270       220       240       258       324       266       308       342       300       329       270       262       256       230 
dram[17]:       226       284       232       220       276       258       242       286       294       306       314       360       258       286       238       300 
dram[18]:       204       268       248       228       252       248       242       244       264       298       316       336       236       244       256       262 
dram[19]:       248       228       236       214       278       232       272       274       300       330       328       304       262       284       276       202 
dram[20]:       254       272       208       246       258       274       270       258       292       260       310       302       228       252       282       270 
dram[21]:       204       264       270       282       266       244       300       302       298       288       312       320       236       238       260       280 
dram[22]:       242       240       248       272       304       294       280       314       336       300       306       296       280       242       238       246 
dram[23]:       244       274       224       282       260       244       288       274       268       251       336       316       304       248       264       256 
dram[24]:       266       286       256       246       216       244       240       254       272       288       272       298       236       268       286       274 
dram[25]:       238       240       248       272       256       258       296       270       300       246       336       354       292       246       224       252 
dram[26]:       224       282       258       248       258       236       246       332       278       314       284       318       258       266       254       282 
dram[27]:       284       256       216       288       280       238       294       270       308       278       330       300       204       234       268       248 
dram[28]:       244       240       238       250       292       232       266       254       286       296       348       326       302       280       278       324 
dram[29]:       304       248       274       222       240       280       278       264       294       290       314       306       248       276       250       258 
dram[30]:       252       257       312       262       250       282       258       308       304       274       340       332       282       304       260       244 
dram[31]:       256       262       272       262       262       242       274       272       330       290       326       308       272       260       230       230 
total dram reads = 138097
bank skew: 360/202 = 1.78
chip skew: 4526/4048 = 1.12
number of total write accesses:
dram[0]:       132       139       110       150       138       128       136       138       124       117       129       118       147       138       107       103 
dram[1]:       153       129       127       136       133       134       107       149       130       136       147       115       134       115       109       140 
dram[2]:       120       107       143       136       114       119       114       149       126       129       115       143       162       116       133       131 
dram[3]:       119       132       128       118       131       127       150       125       122       136       137       137       104       121       127       128 
dram[4]:       132       141       120       102       124       115       125       111       140       115       127       107       116       115       115       131 
dram[5]:       143       133       149       129       148       132       126       132       140       129       149       111       141       145       128       109 
dram[6]:       121       140       138       108       133       112       145       108       107       140       113       133       117       154       119       133 
dram[7]:       120       118       133       138       138       120       129       127       120       132       119       113       114       133       136       110 
dram[8]:       127       143       138       124       131       132       134       118       120       126       148       112       143       118       121       129 
dram[9]:       128       139       135       131       146       105       128       138       119       141       138       129       134       134       110       122 
dram[10]:       135       127       131       149       141       137       105       125       124       121       133       120       116       126       123       126 
dram[11]:       114       132       114       123       137       138       101       124       136       127       132       107       122       133       127       119 
dram[12]:       132       138       132       112       132       132       119       130       144       142       124       112       148       130       131       106 
dram[13]:       130       111       123       121       125       117       116       110       138       113       141       133       136       127       137       125 
dram[14]:       130       123       141       117       121       125       138       118       120       151       125       135       143       103       122       125 
dram[15]:       141       118       125       113       148       126       130       120       127       135       116       145       132       120       120       122 
dram[16]:       126       138       135       110       120       129       154       123       130       147       122       137       135       132       128       116 
dram[17]:       113       142       116       112       139       127       115       137       131       131       129       149       130       144       119       151 
dram[18]:       102       134       124       116       124       123       120       110       119       133       130       137       118       123       128       132 
dram[19]:       124       115       116       108       139       116       122       132       128       143       135       124       131       142       138       103 
dram[20]:       127       136       104       123       129       138       128       120       128       106       127       121       116       127       141       137 
dram[21]:       103       132       135       141       133       122       142       139       130       124       128       129       119       119       130       141 
dram[22]:       121       120       124       136       148       148       127       147       146       127       123       121       142       122       119       124 
dram[23]:       123       137       112       141       130       118       136       124       116       109       141       129       152       125       133       128 
dram[24]:       134       143       128       125       110       122       117       117       117       122       108       123       118       134       143       137 
dram[25]:       119       121       125       137       127       128       140       125       126       105       140       149       146       124       112       127 
dram[26]:       112       142       129       124       127       118       117       156       120       128       116       127       129       133       128       142 
dram[27]:       142       128       109       144       139       120       135       125       133       130       142       118       103       118       135       124 
dram[28]:       122       121       119       126       146       114       123       119       117       124       142       131       151       141       139       162 
dram[29]:       152       124       137       112       120       138       125       123       124       128       129       123       125       139       127       130 
[...]
issued_total_col = 6341 
Row_Bus_Util =  0.064336 
CoL_Bus_Util = 0.037455 
Either_Row_CoL_Bus_Util = 0.096014 
Issued_on_Two_Bus_Simul_Util = 0.005777 
issued_two_Eff = 0.060166 
queue_avg = 0.196565 


dram_util_bins: 0 0 0 0 0 0 0 0 0 0
dram_eff_bins: 0 0 0 0 0 0 0 0 0 0
mrqq: max=13 avg=0.196565
Memory Partition 28: 
Cache L2_bank_056:
MSHR contents

Cache L2_bank_057:
MSHR contents

In Dram Latency Queue (total = 0): 
DRAM[28]: 16 bks, busW=16 BL=2 CL=12, tRRD=3 tCCD=1, tRCD=12 tRAS=28 tRP=12 tRC=40
n_cmd=169298 n_nop=152625 n_act=5584 n_pre=5568 n_ref_event=0 n_req=6553 n_rd=4456 n_rd_L2_A=0 n_write=2097 n_wr_bk=0 bw_util=0.03871
n_activity=93481 dram_eff=0.0701
bk0: 244a 160755i bk1: 240a 160574i bk2: 238a 161155i bk3: 250a 160364i bk4: 292a 157675i bk5: 232a 161228i bk6: 266a 159573i bk7: 254a 160127i bk8: 286a 160500i bk9: 296a 159316i bk10: 348a 157582i bk11: 326a 158356i bk12: 302a 157500i bk13: 280a 158187i bk14: 278a 158105i bk15: 324a 156113i 

------------------------------------------------------------------------

Row_Buffer_Locality = 0.147871
Row_Buffer_Locality_read = 0.148339
Row_Buffer_Locality_write = 0.146876
Bank_Level_Parallism = 2.526222
Bank_Level_Parallism_Col = 1.707922
Bank_Level_Parallism_Ready = 1.034488
write_to_read_ratio_blp_rw_average = 0.355365
GrpLevelPara = 1.512897 

BW Util details:
bwutil = 0.038707 
total_CMD = 169298 
util_bw = 6553 
Wasted_Col = 34739 
Wasted_Row = 25294 
Idle = 102712 

BW Util Bottlenecks: 
RCDc_limit = 38937 
RCDWRc_limit = 15429 
WTRc_limit = 9164 
RTWc_limit = 5495 
CCDLc_limit = 1660 
rwq = 0 
CCDLc_limit_alone = 1183 
WTRc_limit_alone = 8801 
RTWc_limit_alone = 5381 

Commands details: 
total_CMD = 169298 
n_nop = 152625 
Read = 4456 
Write = 2097 
L2_Alloc = 0 
L2_WB = 0 
n_act = 5584 
n_pre = 5568 
n_ref = 0 
n_req = 6553 
total_req = 6553 

Dual Bus Interface Util: 
issued_total_row = 11152 
issued_total_col = 6553 
Row_Bus_Util =  0.065872 
CoL_Bus_Util = 0.038707 
Either_Row_CoL_Bus_Util = 0.098483 
Issued_on_Two_Bus_Simul_Util = 0.006096 
issued_two_Eff = 0.061896 
queue_avg = 0.207226 


dram_util_bins: 0 0 0 0 0 0 0 0 0 0
dram_eff_bins: 0 0 0 0 0 0 0 0 0 0
mrqq: max=16 avg=0.207226
Memory Partition 29: 
Cache L2_bank_058:
MSHR contents

Cache L2_bank_059:
MSHR contents

In Dram Latency Queue (total = 0): 
DRAM[29]: 16 bks, busW=16 BL=2 CL=12, tRRD=3 tCCD=1, tRCD=12 tRAS=28 tRP=12 tRC=40
n_cmd=169298 n_nop=152914 n_act=5528 n_pre=5512 n_ref_event=0 n_req=6402 n_rd=4346 n_rd_L2_A=0 n_write=2056 n_wr_bk=0 bw_util=0.03781
n_activity=91468 dram_eff=0.06999
bk0: 304a 157053i bk1: 248a 159819i bk2: 274a 158722i bk3: 222a 161388i bk4: 240a 160355i bk5: 280a 158761i bk6: 278a 159376i bk7: 264a 159572i bk8: 294a 159263i bk9: 290a 158768i bk10: 314a 158406i bk11: 306a 159212i bk12: 248a 160014i bk13: 276a 158736i bk14: 250a 159687i bk15: 258a 159654i 

------------------------------------------------------------------------

Row_Buffer_Locality = 0.136520
Row_Buffer_Locality_read = 0.132766
Row_Buffer_Locality_write = 0.144455
Bank_Level_Parallism = 2.557039
Bank_Level_Parallism_Col = 1.707418
Bank_Level_Parallism_Ready = 1.031553
write_to_read_ratio_blp_rw_average = 0.353791
GrpLevelPara = 1.507756 

BW Util details:
bwutil = 0.037815 
total_CMD = 169298 
util_bw = 6402 
Wasted_Col = 34165 
Wasted_Row = 24502 
Idle = 104229 

BW Util Bottlenecks: 
RCDc_limit = 38563 
RCDWRc_limit = 15241 
WTRc_limit = 9255 
RTWc_limit = 5152 
CCDLc_limit = 1606 
rwq = 0 
CCDLc_limit_alone = 1181 
WTRc_limit_alone = 8922 
RTWc_limit_alone = 5060 

Commands details: 
total_CMD = 169298 
n_nop = 152914 
Read = 4346 
Write = 2056 
L2_Alloc = 0 
L2_WB = 0 
n_act = 5528 
n_pre = 5512 
n_ref = 0 
n_req = 6402 
total_req = 6402 

Dual Bus Interface Util: 
issued_total_row = 11040 
issued_total_col = 6402 
Row_Bus_Util =  0.065210 
CoL_Bus_Util = 0.037815 
Either_Row_CoL_Bus_Util = 0.096776 
Issued_on_Two_Bus_Simul_Util = 0.006249 
issued_two_Eff = 0.064575 
queue_avg = 0.210552 


dram_util_bins: 0 0 0 0 0 0 0 0 0 0
dram_eff_bins: 0 0 0 0 0 0 0 0 0 0
mrqq: max=13 avg=0.210552
Memory Partition 30: 
Cache L2_bank_060:
MSHR contents

Cache L2_bank_061:
MSHR contents

In Dram Latency Queue (total = 0): 
DRAM[30]: 16 bks, busW=16 BL=2 CL=12, tRRD=3 tCCD=1, tRCD=12 tRAS=28 tRP=12 tRC=40
n_cmd=169298 n_nop=152220 n_act=5784 n_pre=5768 n_ref_event=0 n_req=6664 n_rd=4521 n_rd_L2_A=0 n_write=2143 n_wr_bk=0 bw_util=0.03936
n_activity=94224 dram_eff=0.07073
bk0: 252a 159945i bk1: 257a 159608i bk2: 312a 156663i bk3: 262a 158915i bk4: 250a 159916i bk5: 282a 158196i bk6: 258a 159728i bk7: 308a 156761i bk8: 304a 158716i bk9: 274a 160324i bk10: 340a 158198i bk11: 332a 157506i bk12: 282a 158177i bk13: 304a 157331i bk14: 260a 159156i bk15: 244a 160529i 

------------------------------------------------------------------------

Row_Buffer_Locality = 0.132053
Row_Buffer_Locality_read = 0.129617
Row_Buffer_Locality_write = 0.137191
Bank_Level_Parallism = 2.578834
Bank_Level_Parallism_Col = 1.713290
Bank_Level_Parallism_Ready = 1.030762
write_to_read_ratio_blp_rw_average = 0.355647
GrpLevelPara = 1.517567 

BW Util details:
bwutil = 0.039363 
total_CMD = 169298 
util_bw = 6664 
Wasted_Col = 35775 
Wasted_Row = 25717 
Idle = 101142 

BW Util Bottlenecks: 
RCDc_limit = 40332 
RCDWRc_limit = 15941 
WTRc_limit = 9302 
RTWc_limit = 5676 
CCDLc_limit = 1673 
rwq = 0 
CCDLc_limit_alone = 1218 
WTRc_limit_alone = 8972 
RTWc_limit_alone = 5551 

Commands details: 
total_CMD = 169298 
n_nop = 152220 
Read = 4521 
Write = 2143 
L2_Alloc = 0 
L2_WB = 0 
n_act = 5784 
n_pre = 5768 
n_ref = 0 
n_req = 6664 
total_req = 6664 

Dual Bus Interface Util: 
issued_total_row = 11552 
issued_total_col = 6664 
Row_Bus_Util =  0.068235 
CoL_Bus_Util = 0.039363 
Either_Row_CoL_Bus_Util = 0.100875 
Issued_on_Two_Bus_Simul_Util = 0.006722 
issued_two_Eff = 0.066635 
queue_avg = 0.242407 


dram_util_bins: 0 0 0 0 0 0 0 0 0 0
dram_eff_bins: 0 0 0 0 0 0 0 0 0 0
mrqq: max=17 avg=0.242407
Memory Partition 31: 
Cache L2_bank_062:
MSHR contents

Cache L2_bank_063:
MSHR contents

In Dram Latency Queue (total = 0): 
DRAM[31]: 16 bks, busW=16 BL=2 CL=12, tRRD=3 tCCD=1, tRCD=12 tRAS=28 tRP=12 tRC=40
n_cmd=169298 n_nop=152899 n_act=5499 n_pre=5483 n_ref_event=0 n_req=6410 n_rd=4348 n_rd_L2_A=0 n_write=2062 n_wr_bk=0 bw_util=0.03786
n_activity=93490 dram_eff=0.06856
bk0: 256a 159265i bk1: 262a 159040i bk2: 272a 158967i bk3: 262a 159486i bk4: 262a 159160i bk5: 242a 160099i bk6: 274a 159572i bk7: 272a 159108i bk8: 330a 157864i bk9: 290a 159689i bk10: 326a 158261i bk11: 308a 159342i bk12: 272a 158951i bk13: 260a 159612i bk14: 230a 160389i bk15: 230a 161143i 

------------------------------------------------------------------------

Row_Buffer_Locality = 0.142122
Row_Buffer_Locality_read = 0.137534
Row_Buffer_Locality_write = 0.151794
Bank_Level_Parallism = 2.482571
Bank_Level_Parallism_Col = 1.675576
Bank_Level_Parallism_Ready = 1.024961
write_to_read_ratio_blp_rw_average = 0.354910
GrpLevelPara = 1.482905 

BW Util details:
bwutil = 0.037862 
total_CMD = 169298 
util_bw = 6410 
Wasted_Col = 34852 
Wasted_Row = 25294 
Idle = 102742 

BW Util Bottlenecks: 
RCDc_limit = 38677 
RCDWRc_limit = 15158 
WTRc_limit = 9403 
RTWc_limit = 5317 
CCDLc_limit = 1589 
rwq = 0 
CCDLc_limit_alone = 1110 
WTRc_limit_alone = 9030 
RTWc_limit_alone = 5211 

Commands details: 
total_CMD = 169298 
n_nop = 152899 
Read = 4348 
Write = 2062 
L2_Alloc = 0 
L2_WB = 0 
n_act = 5499 
n_pre = 5483 
n_ref = 0 
n_req = 6410 
total_req = 6410 

Dual Bus Interface Util: 
issued_total_row = 10982 
issued_total_col = 6410 
Row_Bus_Util =  0.064868 
CoL_Bus_Util = 0.037862 
Either_Row_CoL_Bus_Util = 0.096865 
Issued_on_Two_Bus_Simul_Util = 0.005865 
issued_two_Eff = 0.060552 
queue_avg = 0.198715 


dram_util_bins: 0 0 0 0 0 0 0 0 0 0
dram_eff_bins: 0 0 0 0 0 0 0 0 0 0
mrqq: max=12 avg=0.198715

========= L2 cache stats =========
L2_cache_bank[0]: Access = 6118, Miss = 2148, Miss_rate = 0.351, Pending_hits = 0, Reservation_fails = 0
L2_cache_bank[1]: Access = 6199, Miss = 2168, Miss_rate = 0.350, Pending_hits = 0, Reservation_fails = 0
L2_cache_bank[2]: Access = 6180, Miss = 2196, Miss_rate = 0.355, Pending_hits = 0, Reservation_fails = 0
L2_cache_bank[3]: Access = 6301, Miss = 2206, Miss_rate = 0.350, Pending_hits = 0, Reservation_fails = 0
L2_cache_bank[4]: Access = 6147, Miss = 2156, Miss_rate = 0.351, Pending_hits = 0, Reservation_fails = 0
L2_cache_bank[5]: Access = 6192, Miss = 2154, Miss_rate = 0.348, Pending_hits = 0, Reservation_fails = 0
L2_cache_bank[6]: Access = 6177, Miss = 2170, Miss_rate = 0.351, Pending_hits = 0, Reservation_fails = 0
L2_cache_bank[7]: Access = 6239, Miss = 2160, Miss_rate = 0.346, Pending_hits = 2, Reservation_fails = 0
L2_cache_bank[8]: Access = 6064, Miss = 2096, Miss_rate = 0.346, Pending_hits = 0, Reservation_fails = 0
L2_cache_bank[9]: Access = 5761, Miss = 1952, Miss_rate = 0.339, Pending_hits = 0, Reservation_fails = 0
L2_cache_bank[10]: Access = 6579, Miss = 2378, Miss_rate = 0.361, Pending_hits = 0, Reservation_fails = 0
L2_cache_bank[11]: Access = 6155, Miss = 2148, Miss_rate = 0.349, Pending_hits = 0, Reservation_fails = 0
L2_cache_bank[12]: Access = 6086, Miss = 2086, Miss_rate = 0.343, Pending_hits = 0, Reservation_fails = 0
L2_cache_bank[13]: Access = 6264, Miss = 2160, Miss_rate = 0.345, Pending_hits = 0, Reservation_fails = 0
L2_cache_bank[14]: Access = 6124, Miss = 2104, Miss_rate = 0.344, Pending_hits = 0, Reservation_fails = 0
L2_cache_bank[15]: Access = 6042, Miss = 2086, Miss_rate = 0.345, Pending_hits = 0, Reservation_fails = 0
L2_cache_bank[16]: Access = 6384, Miss = 2232, Miss_rate = 0.350, Pending_hits = 0, Reservation_fails = 0
L2_cache_bank[17]: Access = 6117, Miss = 2124, Miss_rate = 0.347, Pending_hits = 0, Reservation_fails = 0
L2_cache_bank[18]: Access = 6261, Miss = 2190, Miss_rate = 0.350, Pending_hits = 0, Reservation_fails = 0
L2_cache_bank[19]: Access = 6316, Miss = 2176, Miss_rate = 0.345, Pending_hits = 0, Reservation_fails = 0
L2_cache_bank[20]: Access = 6174, Miss = 2110, Miss_rate = 0.342, Pending_hits = 0, Reservation_fails = 0
L2_cache_bank[21]: Access = 6261, Miss = 2174, Miss_rate = 0.347, Pending_hits = 0, Reservation_fails = 0
L2_cache_bank[22]: Access = 6115, Miss = 2058, Miss_rate = 0.337, Pending_hits = 0, Reservation_fails = 0
L2_cache_bank[23]: Access = 6177, Miss = 2104, Miss_rate = 0.341, Pending_hits = 0, Reservation_fails = 0
L2_cache_bank[24]: Access = 6389, Miss = 2238, Miss_rate = 0.350, Pending_hits = 0, Reservation_fails = 0
L2_cache_bank[25]: Access = 6131, Miss = 2106, Miss_rate = 0.344, Pending_hits = 0, Reservation_fails = 0
L2_cache_bank[26]: Access = 6355, Miss = 2212, Miss_rate = 0.348, Pending_hits = 0, Reservation_fails = 0
L2_cache_bank[27]: Access = 5930, Miss = 2022, Miss_rate = 0.341, Pending_hits = 0, Reservation_fails = 0
L2_cache_bank[28]: Access = 6332, Miss = 2178, Miss_rate = 0.344, Pending_hits = 0, Reservation_fails = 0
L2_cache_bank[29]: Access = 6081, Miss = 2102, Miss_rate = 0.346, Pending_hits = 0, Reservation_fails = 0
L2_cache_bank[30]: Access = 6349, Miss = 2190, Miss_rate = 0.345, Pending_hits = 0, Reservation_fails = 0
L2_cache_bank[31]: Access = 6176, Miss = 2110, Miss_rate = 0.342, Pending_hits = 0, Reservation_fails = 0
L2_cache_bank[32]: Access = 6244, Miss = 2220, Miss_rate = 0.356, Pending_hits = 0, Reservation_fails = 0
L2_cache_bank[33]: Access = 6199, Miss = 2183, Miss_rate = 0.352, Pending_hits = 0, Reservation_fails = 0
L2_cache_bank[34]: Access = 5974, Miss = 2080, Miss_rate = 0.348, Pending_hits = 0, Reservation_fails = 0
L2_cache_bank[35]: Access = 6502, Miss = 2300, Miss_rate = 0.354, Pending_hits = 0, Reservation_fails = 0
L2_cache_bank[36]: Access = 5854, Miss = 2018, Miss_rate = 0.345, Pending_hits = 0, Reservation_fails = 0
L2_cache_bank[37]: Access = 6136, Miss = 2128, Miss_rate = 0.347, Pending_hits = 2, Reservation_fails = 0
L2_cache_bank[38]: Access = 6263, Miss = 2200, Miss_rate = 0.351, Pending_hits = 0, Reservation_fails = 0
L2_cache_bank[39]: Access = 6081, Miss = 2068, Miss_rate = 0.340, Pending_hits = 0, Reservation_fails = 0
L2_cache_bank[40]: Access = 6074, Miss = 2102, Miss_rate = 0.346, Pending_hits = 0, Reservation_fails = 0
L2_cache_bank[41]: Access = 6107, Miss = 2134, Miss_rate = 0.349, Pending_hits = 0, Reservation_fails = 0
L2_cache_bank[42]: Access = 6143, Miss = 2146, Miss_rate = 0.349, Pending_hits = 0, Reservation_fails = 0
L2_cache_bank[43]: Access = 6300, Miss = 2218, Miss_rate = 0.352, Pending_hits = 0, Reservation_fails = 0
L2_cache_bank[44]: Access = 6316, Miss = 2234, Miss_rate = 0.354, Pending_hits = 0, Reservation_fails = 0
L2_cache_bank[45]: Access = 6266, Miss = 2204, Miss_rate = 0.352, Pending_hits = 0, Reservation_fails = 0
L2_cache_bank[46]: Access = 6254, Miss = 2188, Miss_rate = 0.350, Pending_hits = 0, Reservation_fails = 0
L2_cache_bank[47]: Access = 6136, Miss = 2145, Miss_rate = 0.350, Pending_hits = 0, Reservation_fails = 0
L2_cache_bank[48]: Access = 5950, Miss = 2044, Miss_rate = 0.344, Pending_hits = 0, Reservation_fails = 0
L2_cache_bank[49]: Access = 6198, Miss = 2158, Miss_rate = 0.348, Pending_hits = 0, Reservation_fails = 0
L2_cache_bank[50]: Access = 6244, Miss = 2190, Miss_rate = 0.351, Pending_hits = 0, Reservation_fails = 0
L2_cache_bank[51]: Access = 6162, Miss = 2138, Miss_rate = 0.347, Pending_hits = 0, Reservation_fails = 0
L2_cache_bank[52]: Access = 6004, Miss = 2060, Miss_rate = 0.343, Pending_hits = 0, Reservation_fails = 0
L2_cache_bank[53]: Access = 6447, Miss = 2278, Miss_rate = 0.353, Pending_hits = 0, Reservation_fails = 0
L2_cache_bank[54]: Access = 6404, Miss = 2184, Miss_rate = 0.341, Pending_hits = 0, Reservation_fails = 0
L2_cache_bank[55]: Access = 6208, Miss = 2112, Miss_rate = 0.340, Pending_hits = 0, Reservation_fails = 0
L2_cache_bank[56]: Access = 6384, Miss = 2254, Miss_rate = 0.353, Pending_hits = 0, Reservation_fails = 0
L2_cache_bank[57]: Access = 6287, Miss = 2202, Miss_rate = 0.350, Pending_hits = 0, Reservation_fails = 0
L2_cache_bank[58]: Access = 6305, Miss = 2202, Miss_rate = 0.349, Pending_hits = 0, Reservation_fails = 0
L2_cache_bank[59]: Access = 6231, Miss = 2144, Miss_rate = 0.344, Pending_hits = 2, Reservation_fails = 0
L2_cache_bank[60]: Access = 6390, Miss = 2258, Miss_rate = 0.353, Pending_hits = 0, Reservation_fails = 0
L2_cache_bank[61]: Access = 6450, Miss = 2263, Miss_rate = 0.351, Pending_hits = 0, Reservation_fails = 0
L2_cache_bank[62]: Access = 6438, Miss = 2222, Miss_rate = 0.345, Pending_hits = 0, Reservation_fails = 0
L2_cache_bank[63]: Access = 6217, Miss = 2126, Miss_rate = 0.342, Pending_hits = 0, Reservation_fails = 0
L2_total_cache_accesses = 397344
L2_total_cache_misses = 138097
L2_total_cache_miss_rate = 0.3476
L2_total_cache_pending_hits = 6
L2_total_cache_reservation_fails = 0
L2_total_cache_breakdown:
	L2_cache_stats_breakdown[GLOBAL_ACC_R][HIT] = 193705
	L2_cache_stats_breakdown[GLOBAL_ACC_R][HIT_RESERVED] = 6
	L2_cache_stats_breakdown[GLOBAL_ACC_R][MISS] = 67069
	L2_cache_stats_breakdown[GLOBAL_ACC_R][RESERVATION_FAIL] = 0
	L2_cache_stats_breakdown[GLOBAL_ACC_R][SECTOR_MISS] = 71028
	L2_cache_stats_breakdown[LOCAL_ACC_R][HIT] = 0
	L2_cache_stats_breakdown[LOCAL_ACC_R][HIT_RESERVED] = 0
	L2_cache_stats_breakdown[LOCAL_ACC_R][MISS] = 0
	L2_cache_stats_breakdown[LOCAL_ACC_R][RESERVATION_FAIL] = 0
	L2_cache_stats_breakdown[LOCAL_ACC_R][SECTOR_MISS] = 0
	L2_cache_stats_breakdown[CONST_ACC_R][HIT] = 0
	L2_cache_stats_breakdown[CONST_ACC_R][HIT_RESERVED] = 0
	L2_cache_stats_breakdown[CONST_ACC_R][MISS] = 0
	L2_cache_stats_breakdown[CONST_ACC_R][RESERVATION_FAIL] = 0
	L2_cache_stats_breakdown[CONST_ACC_R][SECTOR_MISS] = 0
	L2_cache_stats_breakdown[TEXTURE_ACC_R][HIT] = 0
	L2_cache_stats_breakdown[TEXTURE_ACC_R][HIT_RESERVED] = 0
	L2_cache_stats_breakdown[TEXTURE_ACC_R][MISS] = 0
	L2_cache_stats_breakdown[TEXTURE_ACC_R][RESERVATION_FAIL] = 0
	L2_cache_stats_breakdown[TEXTURE_ACC_R][SECTOR_MISS] = 0
	L2_cache_stats_breakdown[GLOBAL_ACC_W][HIT] = 65536
	L2_cache_stats_breakdown[GLOBAL_ACC_W][HIT_RESERVED] = 0
	L2_cache_stats_breakdown[GLOBAL_ACC_W][MISS] = 0
	L2_cache_stats_breakdown[GLOBAL_ACC_W][RESERVATION_FAIL] = 0
	L2_cache_stats_breakdown[GLOBAL_ACC_W][SECTOR_MISS] = 0
	L2_cache_stats_breakdown[LOCAL_ACC_W][HIT] = 0
	L2_cache_stats_breakdown[LOCAL_ACC_W][HIT_RESERVED] = 0
	L2_cache_stats_breakdown[LOCAL_ACC_W][MISS] = 0
	L2_cache_stats_breakdown[LOCAL_ACC_W][RESERVATION_FAIL] = 0
	L2_cache_stats_breakdown[LOCAL_ACC_W][SECTOR_MISS] = 0
	L2_cache_stats_breakdown[L1_WRBK_ACC][HIT] = 0
	L2_cache_stats_breakdown[L1_WRBK_ACC][HIT_RESERVED] = 0
	L2_cache_stats_breakdown[L1_WRBK_ACC][MISS] = 0
	L2_cache_stats_breakdown[L1_WRBK_ACC][RESERVATION_FAIL] = 0
	L2_cache_stats_breakdown[L1_WRBK_ACC][SECTOR_MISS] = 0
	L2_cache_stats_breakdown[L2_WRBK_ACC][HIT] = 0
	L2_cache_stats_breakdown[L2_WRBK_ACC][HIT_RESERVED] = 0
	L2_cache_stats_breakdown[L2_WRBK_ACC][MISS] = 0
	L2_cache_stats_breakdown[L2_WRBK_ACC][RESERVATION_FAIL] = 0
	L2_cache_stats_breakdown[L2_WRBK_ACC][SECTOR_MISS] = 0
	L2_cache_stats_breakdown[INST_ACC_R][HIT] = 0
	L2_cache_stats_breakdown[INST_ACC_R][HIT_RESERVED] = 0
	L2_cache_stats_breakdown[INST_ACC_R][MISS] = 0
	L2_cache_stats_breakdown[INST_ACC_R][RESERVATION_FAIL] = 0
	L2_cache_stats_breakdown[INST_ACC_R][SECTOR_MISS] = 0
	L2_cache_stats_breakdown[L1_WR_ALLOC_R][HIT] = 0
	L2_cache_stats_breakdown[L1_WR_ALLOC_R][HIT_RESERVED] = 0
	L2_cache_stats_breakdown[L1_WR_ALLOC_R][MISS] = 0
	L2_cache_stats_breakdown[L1_WR_ALLOC_R][RESERVATION_FAIL] = 0
	L2_cache_stats_breakdown[L1_WR_ALLOC_R][SECTOR_MISS] = 0
	L2_cache_stats_breakdown[L2_WR_ALLOC_R][HIT] = 0
	L2_cache_stats_breakdown[L2_WR_ALLOC_R][HIT_RESERVED] = 0
	L2_cache_stats_breakdown[L2_WR_ALLOC_R][MISS] = 0
	L2_cache_stats_breakdown[L2_WR_ALLOC_R][RESERVATION_FAIL] = 0
	L2_cache_stats_breakdown[L2_WR_ALLOC_R][SECTOR_MISS] = 0
	L2_cache_stats_breakdown[GLOBAL_ACC_R][TOTAL_ACCESS] = 331808
	L2_cache_stats_breakdown[GLOBAL_ACC_W][TOTAL_ACCESS] = 65536
L2_total_cache_reservation_fail_breakdown:
L2_cache_data_port_util = 0.018
L2_cache_fill_port_util = 0.010

icnt_total_pkts_mem_to_simt=397344
icnt_total_pkts_simt_to_mem=397344
LD_mem_lat_dist  0 0 0 0 0 0 0 0 0 0 0 0 0 0 0 0 0 0 0 0 0 0 0 0 0 0 0
ST_mem_lat_dist  0 0 0 0 0 0 0 0 0 0 0 0 0 0 0 0 0 0 0 0 0 0 0 0 0 0 0
----------------------------Interconnect-DETAILS--------------------------------
Req_Network_injected_packets_num = 397344
Req_Network_cycles = 225465
Req_Network_injected_packets_per_cycle =       1.7623 
Req_Network_conflicts_per_cycle =       0.0278
Req_Network_conflicts_per_cycle_util =       0.0357
Req_Bank_Level_Parallism =       2.2646
Req_Network_in_buffer_full_per_cycle =       0.0000
Req_Network_in_buffer_avg_util =       0.0006
Req_Network_out_buffer_full_per_cycle =       0.0000
Req_Network_out_buffer_avg_util =       0.0275

Reply_Network_injected_packets_num = 397344
Reply_Network_cycles = 225465
Reply_Network_injected_packets_per_cycle =        1.7623
Reply_Network_conflicts_per_cycle =        0.5407
Reply_Network_conflicts_per_cycle_util =       0.6856
Reply_Bank_Level_Parallism =       2.2344
Reply_Network_in_buffer_full_per_cycle =       0.0000
Reply_Network_in_buffer_avg_util =       0.0094
Reply_Network_out_buffer_full_per_cycle =       0.0000
Reply_Network_out_buffer_avg_util =       0.0220
----------------------------END-of-Interconnect-DETAILS-------------------------


gpgpu_simulation_time = 0 days, 0 hrs, 5 min, 6 sec (306 sec)
gpgpu_simulation_rate = 53708 (inst/sec)
gpgpu_simulation_rate = 736 (cycle/sec)
gpgpu_silicon_slowdown = 1538043x
GPGPU-Sim: detected inactive GPU simulation thread

total_us: 1 laps, 253226747 us


gen_hists: 1 laps, 253226747.000000 us/lap, 31653343.375000 us/cta

GPGPU-Sim: synchronize waiting for inactive GPU simulation
GPGPU-Sim API: Stream Manager State
GPGPU-Sim: detected inactive GPU simulation thread
GPGPU-Sim: *** exit detected ***
