

        *** GPGPU-Sim Simulator Version 4.0.0  [build gpgpu-sim_git-commit-_modified_0.0] ***


GPGPU-Sim PTX: simulation mode 0 (can change with PTX_SIM_MODE_FUNC environment variable:
               1=functional simulation only, 0=detailed performance simulator)
GPGPU-Sim PTX: overriding embedded ptx with ptx file (PTX_SIM_USE_PTX_FILE is set)
GPGPU-Sim: Configuration options:

-save_embedded_ptx                      0 # saves ptx files embedded in binary as <n>.ptx
-keep                                   0 # keep intermediate files created by GPGPU-Sim when interfacing with external programs
-gpgpu_ptx_save_converted_ptxplus                    0 # Saved converted ptxplus to a file
-gpgpu_occupancy_sm_number                   70 # The SM number to pass to ptxas when getting register usage for computing GPU occupancy. This parameter is required in the config.
-ptx_opcode_latency_int      4,13,4,5,145,21 # Opcode latencies for integers <ADD,MAX,MUL,MAD,DIV,SHFL>Default 1,1,19,25,145,32
-ptx_opcode_latency_fp          4,13,4,5,39 # Opcode latencies for single precision floating points <ADD,MAX,MUL,MAD,DIV>Default 1,1,1,1,30
-ptx_opcode_latency_dp         8,19,8,8,330 # Opcode latencies for double precision floating points <ADD,MAX,MUL,MAD,DIV>Default 8,8,8,8,335
-ptx_opcode_latency_sfu                  100 # Opcode latencies for SFU instructionsDefault 8
-ptx_opcode_latency_tesnor                   64 # Opcode latencies for Tensor instructionsDefault 64
-ptx_opcode_initiation_int          2,2,2,2,8,4 # Opcode initiation intervals for integers <ADD,MAX,MUL,MAD,DIV,SHFL>Default 1,1,4,4,32,4
-ptx_opcode_initiation_fp            2,2,2,2,4 # Opcode initiation intervals for single precision floating points <ADD,MAX,MUL,MAD,DIV>Default 1,1,1,1,5
-ptx_opcode_initiation_dp          4,4,4,4,130 # Opcode initiation intervals for double precision floating points <ADD,MAX,MUL,MAD,DIV>Default 8,8,8,8,130
-ptx_opcode_initiation_sfu                    8 # Opcode initiation intervals for sfu instructionsDefault 8
-ptx_opcode_initiation_tensor                   64 # Opcode initiation intervals for tensor instructionsDefault 64
-cdp_latency         7200,8000,100,12000,1600 # CDP API latency <cudaStreamCreateWithFlags, cudaGetParameterBufferV2_init_perWarp, cudaGetParameterBufferV2_perKernel, cudaLaunchDeviceV2_init_perWarp, cudaLaunchDevicV2_perKernel>Default 7200,8000,100,12000,1600
-network_mode                           2 # Interconnection network mode
-inter_config_file                   mesh # Interconnection network config file
-icnt_in_buffer_limit                  512 # in_buffer_limit
-icnt_out_buffer_limit                  512 # out_buffer_limit
-icnt_subnets                           2 # subnets
-icnt_arbiter_algo                      1 # arbiter_algo
-icnt_verbose                           0 # inct_verbose
-icnt_grant_cycles                      1 # grant_cycles
-gpgpu_ptx_use_cuobjdump                    1 # Use cuobjdump to extract ptx and sass from binaries
-gpgpu_experimental_lib_support                    0 # Try to extract code from cuda libraries [Broken because of unknown cudaGetExportTable]
-checkpoint_option                      0 #  checkpointing flag (0 = no checkpoint)
-checkpoint_kernel                      1 #  checkpointing during execution of which kernel (1- 1st kernel)
-checkpoint_CTA                         0 #  checkpointing after # of CTA (< less than total CTA)
-resume_option                          0 #  resume flag (0 = no resume)
-resume_kernel                          0 #  Resume from which kernel (1= 1st kernel)
-resume_CTA                             0 #  resume from which CTA 
-checkpoint_CTA_t                       0 #  resume from which CTA 
-checkpoint_insn_Y                      0 #  resume from which CTA 
-gpgpu_ptx_convert_to_ptxplus                    0 # Convert SASS (native ISA) to ptxplus and run ptxplus
-gpgpu_ptx_force_max_capability                   70 # Force maximum compute capability
-gpgpu_ptx_inst_debug_to_file                    0 # Dump executed instructions' debug information to file
-gpgpu_ptx_inst_debug_file       inst_debug.txt # Executed instructions' debug output file
-gpgpu_ptx_inst_debug_thread_uid                    1 # Thread UID for executed instructions' debug output
-gpgpu_n_mem_for_l2wb_pcommit                   32 # number of memory modules (e.g. memory controllers) in gpu
-gpgpu_n_sub_partition_per_mchannel_for_l2wb_pcommit                    2 # number of memory subpartition in each memory module
-gpgpu_dl2_bsize_for_l2wb_pcommit                  128 # default 128 bytes
-gpgpu_simd_model                       1 # 1 = post-dominator
-gpgpu_shader_core_pipeline              2048:32 # shader core pipeline config, i.e., {<nthread>:<warpsize>}
-gpgpu_tex_cache:l1  N:4:128:256,L:R:m:N:L,T:512:8,128:2 # per-shader L1 texture cache  (READ-ONLY) config  {<nsets>:<bsize>:<assoc>,<rep>:<wr>:<alloc>:<wr_alloc>,<mshr>:<N>:<merge>,<mq>:<rf>}
-gpgpu_const_cache:l1 N:128:64:8,L:R:f:N:L,S:2:64,4 # per-shader L1 constant memory cache  (READ-ONLY) config  {<nsets>:<bsize>:<assoc>,<rep>:<wr>:<alloc>:<wr_alloc>,<mshr>:<N>:<merge>,<mq>} 
-gpgpu_cache:il1     N:64:128:16,L:R:f:N:L,S:2:48,4 # shader L1 instruction cache config  {<nsets>:<bsize>:<assoc>,<rep>:<wr>:<alloc>:<wr_alloc>,<mshr>:<N>:<merge>,<mq>} 
-gpgpu_cache:dl1     S:1:128:256,L:L:s:N:L,A:256:8,16:0,32 # per-shader L1 data cache config  {<nsets>:<bsize>:<assoc>,<rep>:<wr>:<alloc>:<wr_alloc>,<mshr>:<N>:<merge>,<mq> | none}
-gpgpu_l1_banks                         4 # The number of L1 cache banks
-gpgpu_l1_banks_byte_interleaving                   32 # l1 banks byte interleaving granularity
-gpgpu_l1_banks_hashing_function                    0 # l1 banks hashing function
-gpgpu_l1_latency                      20 # L1 Hit Latency
-gpgpu_smem_latency                    20 # smem Latency
-gpgpu_cache:dl1PrefL1                 none # per-shader L1 data cache config  {<nsets>:<bsize>:<assoc>,<rep>:<wr>:<alloc>:<wr_alloc>,<mshr>:<N>:<merge>,<mq> | none}
-gpgpu_cache:dl1PrefShared                 none # per-shader L1 data cache config  {<nsets>:<bsize>:<assoc>,<rep>:<wr>:<alloc>:<wr_alloc>,<mshr>:<N>:<merge>,<mq> | none}
-gpgpu_gmem_skip_L1D                    0 # global memory access skip L1D cache (implements -Xptxas -dlcm=cg, default=no skip)
-gpgpu_perfect_mem                      0 # enable perfect memory mode (no cache miss)
-n_regfile_gating_group                    4 # group of lanes that should be read/written together)
-gpgpu_clock_gated_reg_file                    0 # enable clock gated reg file for power calculations
-gpgpu_clock_gated_lanes                    0 # enable clock gated lanes for power calculations
-gpgpu_shader_registers                65536 # Number of registers per shader core. Limits number of concurrent CTAs. (default 8192)
-gpgpu_registers_per_block                65536 # Maximum number of registers per CTA. (default 8192)
-gpgpu_ignore_resources_limitation                    0 # gpgpu_ignore_resources_limitation (default 0)
-gpgpu_shader_cta                      32 # Maximum number of concurrent CTAs in shader (default 8)
-gpgpu_num_cta_barriers                   16 # Maximum number of named barriers per CTA (default 16)
-gpgpu_n_clusters                      80 # number of processing clusters
-gpgpu_n_cores_per_cluster                    1 # number of simd cores per cluster
-gpgpu_n_cluster_ejection_buffer_size                   32 # number of packets in ejection buffer
-gpgpu_n_ldst_response_buffer_size                    2 # number of response packets in ld/st unit ejection buffer
-gpgpu_shmem_per_block                65536 # Size of shared memory per thread block or CTA (default 48kB)
-gpgpu_shmem_size                   98304 # Size of shared memory per shader core (default 16kB)
-gpgpu_adaptive_cache_config            536870913 # adaptive_cache_config
-gpgpu_shmem_sizeDefault                98304 # Size of shared memory per shader core (default 16kB)
-gpgpu_shmem_size_PrefL1                16384 # Size of shared memory per shader core (default 16kB)
-gpgpu_shmem_size_PrefShared                16384 # Size of shared memory per shader core (default 16kB)
-gpgpu_shmem_num_banks                   32 # Number of banks in the shared memory in each shader core (default 16)
-gpgpu_shmem_limited_broadcast                    0 # Limit shared memory to do one broadcast per cycle (default on)
-gpgpu_shmem_warp_parts                    1 # Number of portions a warp is divided into for shared memory bank conflict check 
-gpgpu_mem_unit_ports                    1 # The number of memory transactions allowed per core cycle
-gpgpu_shmem_warp_parts                    1 # Number of portions a warp is divided into for shared memory bank conflict check 
-gpgpu_warpdistro_shader                   -1 # Specify which shader core to collect the warp size distribution from
-gpgpu_warp_issue_shader                    0 # Specify which shader core to collect the warp issue distribution from
-gpgpu_local_mem_map                    1 # Mapping from local memory space address to simulated GPU physical address space (default = enabled)
-gpgpu_num_reg_banks                   16 # Number of register banks (default = 8)
-gpgpu_reg_bank_use_warp_id                    0 # Use warp ID in mapping registers to banks (default = off)
-gpgpu_sub_core_model                    1 # Sub Core Volta/Pascal model (default = off)
-gpgpu_enable_specialized_operand_collector                    0 # enable_specialized_operand_collector
-gpgpu_operand_collector_num_units_sp                    4 # number of collector units (default = 4)
-gpgpu_operand_collector_num_units_dp                    0 # number of collector units (default = 0)
-gpgpu_operand_collector_num_units_sfu                    4 # number of collector units (default = 4)
-gpgpu_operand_collector_num_units_int                    0 # number of collector units (default = 0)
-gpgpu_operand_collector_num_units_tensor_core                    4 # number of collector units (default = 4)
-gpgpu_operand_collector_num_units_mem                    2 # number of collector units (default = 2)
-gpgpu_operand_collector_num_units_gen                    8 # number of collector units (default = 0)
-gpgpu_operand_collector_num_in_ports_sp                    1 # number of collector unit in ports (default = 1)
-gpgpu_operand_collector_num_in_ports_dp                    0 # number of collector unit in ports (default = 0)
-gpgpu_operand_collector_num_in_ports_sfu                    1 # number of collector unit in ports (default = 1)
-gpgpu_operand_collector_num_in_ports_int                    0 # number of collector unit in ports (default = 0)
-gpgpu_operand_collector_num_in_ports_tensor_core                    1 # number of collector unit in ports (default = 1)
-gpgpu_operand_collector_num_in_ports_mem                    1 # number of collector unit in ports (default = 1)
-gpgpu_operand_collector_num_in_ports_gen                    8 # number of collector unit in ports (default = 0)
-gpgpu_operand_collector_num_out_ports_sp                    1 # number of collector unit in ports (default = 1)
-gpgpu_operand_collector_num_out_ports_dp                    0 # number of collector unit in ports (default = 0)
-gpgpu_operand_collector_num_out_ports_sfu                    1 # number of collector unit in ports (default = 1)
-gpgpu_operand_collector_num_out_ports_int                    0 # number of collector unit in ports (default = 0)
-gpgpu_operand_collector_num_out_ports_tensor_core                    1 # number of collector unit in ports (default = 1)
-gpgpu_operand_collector_num_out_ports_mem                    1 # number of collector unit in ports (default = 1)
-gpgpu_operand_collector_num_out_ports_gen                    8 # number of collector unit in ports (default = 0)
-gpgpu_coalesce_arch                   60 # Coalescing arch (GT200 = 13, Fermi = 20)
-gpgpu_num_sched_per_core                    4 # Number of warp schedulers per core
-gpgpu_max_insn_issue_per_warp                    1 # Max number of instructions that can be issued per warp in one cycle by scheduler (either 1 or 2)
-gpgpu_dual_issue_diff_exec_units                    1 # should dual issue use two different execution unit resources (Default = 1)
-gpgpu_simt_core_sim_order                    1 # Select the simulation order of cores in a cluster (0=Fix, 1=Round-Robin)
-gpgpu_pipeline_widths 4,4,4,4,4,4,4,4,4,4,8,4,4 # Pipeline widths ID_OC_SP,ID_OC_DP,ID_OC_INT,ID_OC_SFU,ID_OC_MEM,OC_EX_SP,OC_EX_DP,OC_EX_INT,OC_EX_SFU,OC_EX_MEM,EX_WB,ID_OC_TENSOR_CORE,OC_EX_TENSOR_CORE
-gpgpu_tensor_core_avail                    1 # Tensor Core Available (default=0)
-gpgpu_num_sp_units                     4 # Number of SP units (default=1)
-gpgpu_num_dp_units                     4 # Number of DP units (default=0)
-gpgpu_num_int_units                    4 # Number of INT units (default=0)
-gpgpu_num_sfu_units                    4 # Number of SF units (default=1)
-gpgpu_num_tensor_core_units                    4 # Number of tensor_core units (default=1)
-gpgpu_num_mem_units                    1 # Number if ldst units (default=1) WARNING: not hooked up to anything
-gpgpu_scheduler                      gto # Scheduler configuration: < lrr | gto | two_level_active > If two_level_active:<num_active_warps>:<inner_prioritization>:<outer_prioritization>For complete list of prioritization values see shader.h enum scheduler_prioritization_typeDefault: gto
-gpgpu_concurrent_kernel_sm                    0 # Support concurrent kernels on a SM (default = disabled)
-gpgpu_perfect_inst_const_cache                    1 # perfect inst and const cache mode, so all inst and const hits in the cache(default = disabled)
-gpgpu_inst_fetch_throughput                    4 # the number of fetched intruction per warp each cycle
-gpgpu_reg_file_port_throughput                    2 # the number ports of the register file
-specialized_unit_1         0,4,4,4,4,BRA # specialized unit config {<enabled>,<num_units>:<latency>:<initiation>,<ID_OC_SPEC>:<OC_EX_SPEC>,<NAME>}
-specialized_unit_2         0,4,4,4,4,BRA # specialized unit config {<enabled>,<num_units>:<latency>:<initiation>,<ID_OC_SPEC>:<OC_EX_SPEC>,<NAME>}
-specialized_unit_3         0,4,4,4,4,BRA # specialized unit config {<enabled>,<num_units>:<latency>:<initiation>,<ID_OC_SPEC>:<OC_EX_SPEC>,<NAME>}
-specialized_unit_4         0,4,4,4,4,BRA # specialized unit config {<enabled>,<num_units>:<latency>:<initiation>,<ID_OC_SPEC>:<OC_EX_SPEC>,<NAME>}
-specialized_unit_5         0,4,4,4,4,BRA # specialized unit config {<enabled>,<num_units>:<latency>:<initiation>,<ID_OC_SPEC>:<OC_EX_SPEC>,<NAME>}
-specialized_unit_6         0,4,4,4,4,BRA # specialized unit config {<enabled>,<num_units>:<latency>:<initiation>,<ID_OC_SPEC>:<OC_EX_SPEC>,<NAME>}
-specialized_unit_7         0,4,4,4,4,BRA # specialized unit config {<enabled>,<num_units>:<latency>:<initiation>,<ID_OC_SPEC>:<OC_EX_SPEC>,<NAME>}
-specialized_unit_8         0,4,4,4,4,BRA # specialized unit config {<enabled>,<num_units>:<latency>:<initiation>,<ID_OC_SPEC>:<OC_EX_SPEC>,<NAME>}
-gpgpu_perf_sim_memcpy                    1 # Fill the L2 cache on memcpy
-gpgpu_simple_dram_model                    0 # simple_dram_model with fixed latency and BW
-gpgpu_dram_scheduler                    1 # 0 = fifo, 1 = FR-FCFS (defaul)
-gpgpu_dram_partition_queues          64:64:64:64 # i2$:$2d:d2$:$2i
-l2_ideal                               0 # Use a ideal L2 cache that always hit
-gpgpu_cache:dl2     S:32:128:24,L:B:m:L:P,A:192:4,32:0,32 # unified banked L2 data cache config  {<nsets>:<bsize>:<assoc>,<rep>:<wr>:<alloc>:<wr_alloc>,<mshr>:<N>:<merge>,<mq>}
-gpgpu_cache:dl2_texture_only                    0 # L2 cache used for texture only
-gpgpu_n_mem                           32 # number of memory modules (e.g. memory controllers) in gpu
-gpgpu_n_sub_partition_per_mchannel                    2 # number of memory subpartition in each memory module
-gpgpu_n_mem_per_ctrlr                    1 # number of memory chips per memory controller
-gpgpu_memlatency_stat                   14 # track and display latency statistics 0x2 enables MC, 0x4 enables queue logs
-gpgpu_frfcfs_dram_sched_queue_size                   64 # 0 = unlimited (default); # entries per chip
-gpgpu_dram_return_queue_size                  192 # 0 = unlimited (default); # entries per chip
-gpgpu_dram_buswidth                   16 # default = 4 bytes (8 bytes per cycle at DDR)
-gpgpu_dram_burst_length                    2 # Burst length of each DRAM request (default = 4 data bus cycle)
-dram_data_command_freq_ratio                    2 # Frequency ratio between DRAM data bus and command bus (default = 2 times, i.e. DDR)
-gpgpu_dram_timing_opt nbk=16:CCD=1:RRD=3:RCD=12:RAS=28:RP=12:RC=40: CL=12:WL=2:CDLR=3:WR=10:nbkgrp=4:CCDL=2:RTPL=3 # DRAM timing parameters = {nbk:tCCD:tRRD:tRCD:tRAS:tRP:tRC:CL:WL:tCDLR:tWR:nbkgrp:tCCDL:tRTPL}
-gpgpu_l2_rop_latency                  160 # ROP queue latency (default 85)
-dram_latency                         200 # DRAM latency (default 30)
-dram_write_latency                   600 # DRAM write latency (default 100)
-dram_dual_bus_interface                    1 # dual_bus_interface (default = 0) 
-dram_bnk_indexing_policy                    0 # dram_bnk_indexing_policy (0 = normal indexing, 1 = Xoring with the higher bits) (Default = 0)
-dram_bnkgrp_indexing_policy                    1 # dram_bnkgrp_indexing_policy (0 = take higher bits, 1 = take lower bits) (Default = 0)
-dram_seperate_write_queue_enable                    0 # Seperate_Write_Queue_Enable
-dram_write_queue_size             32:28:16 # Write_Queue_Size
-dram_elimnate_rw_turnaround                    0 # elimnate_rw_turnaround i.e set tWTR and tRTW = 0
-icnt_flit_size                        40 # icnt_flit_size
-gpgpu_mem_addr_mapping dramid@8;00000000.00000000.00000000.00000000.0000RRRR.RRRRRRRR.RBBBCCCB.CCCSSSSS # mapping memory address to dram model {dramid@<start bit>;<memory address map>}
-gpgpu_mem_addr_test                    0 # run sweep test to check address mapping for aliased address
-gpgpu_mem_address_mask                    1 # 0 = old addressing mask, 1 = new addressing mask, 2 = new add. mask + flipped bank sel and chip sel bits
-gpgpu_memory_partition_indexing                    0 # 0 = no indexing, 1 = bitwise xoring, 2 = IPoly, 3 = custom indexing
-gpuwattch_xml_file         gpuwattch.xml # GPUWattch XML file
-power_simulation_enabled                    0 # Turn on power simulator (1=On, 0=Off)
-power_per_cycle_dump                    0 # Dump detailed power output each cycle
-power_trace_enabled                    0 # produce a file for the power trace (1=On, 0=Off)
-power_trace_zlevel                     6 # Compression level of the power trace output log (0=no comp, 9=highest)
-steady_power_levels_enabled                    0 # produce a file for the steady power levels (1=On, 0=Off)
-steady_state_definition                  8:4 # allowed deviation:number of samples
-gpgpu_max_cycle                        0 # terminates gpu simulation early (0 = no limit)
-gpgpu_max_insn                         0 # terminates gpu simulation early (0 = no limit)
-gpgpu_max_cta                          0 # terminates gpu simulation early (0 = no limit)
-gpgpu_max_completed_cta                    0 # terminates gpu simulation early (0 = no limit)
-gpgpu_runtime_stat                   500 # display runtime statistics such as dram utilization {<freq>:<flag>}
-liveness_message_freq                    1 # Minimum number of seconds between simulation liveness messages (0 = always print)
-gpgpu_compute_capability_major                    7 # Major compute capability version number
-gpgpu_compute_capability_minor                    0 # Minor compute capability version number
-gpgpu_flush_l1_cache                    1 # Flush L1 cache at the end of each kernel call
-gpgpu_flush_l2_cache                    0 # Flush L2 cache at the end of each kernel call
-gpgpu_deadlock_detect                    1 # Stop the simulation at deadlock (1=on (default), 0=off)
-gpgpu_ptx_instruction_classification                    0 # if enabled will classify ptx instruction types per kernel (Max 255 kernels now)
-gpgpu_ptx_sim_mode                     0 # Select between Performance (default) or Functional simulation (1)
-gpgpu_clock_domains 1132.0:1132.0:1132.0:850.0 # Clock Domain Frequencies in MhZ {<Core Clock>:<ICNT Clock>:<L2 Clock>:<DRAM Clock>}
-gpgpu_max_concurrent_kernel                    8 # maximum kernels that can run concurrently on GPU
-gpgpu_cflog_interval                    0 # Interval between each snapshot in control flow logger
-visualizer_enabled               adda8e58574106fd26e85d273a499eea  /home/pli11/Desktop/re_test/megakv/delete/run
Extracting PTX file and ptxas options    1: run.1.sm_70.ptx -arch=sm_70
      0 # Turn on visualizer output (1=On, 0=Off)
-visualizer_outputfile                 NULL # Specifies the output log file for visualizer
-visualizer_zlevel                      6 # Compression level of the visualizer output log (0=no comp, 9=highest)
-gpgpu_stack_size_limit                 1024 # GPU thread stack size
-gpgpu_heap_size_limit              8388608 # GPU malloc heap size 
-gpgpu_runtime_sync_depth_limit                    2 # GPU device runtime synchronize depth
-gpgpu_runtime_pending_launch_count_limit                 2048 # GPU device runtime pending launch count
-trace_enabled                          0 # Turn on traces
-trace_components                    none # comma seperated list of traces to enable. Complete list found in trace_streams.tup. Default none
-trace_sampling_core                    0 # The core which is printed using CORE_DPRINTF. Default 0
-trace_sampling_memory_partition                   -1 # The memory partition which is printed using MEMPART_DPRINTF. Default -1 (i.e. all)
-enable_ptx_file_line_stats                    1 # Turn on PTX source line statistic profiling. (1 = On)
-ptx_line_stats_filename gpgpu_inst_stats.txt # Output file for PTX source line statistics.
-gpgpu_kernel_launch_latency                 5000 # Kernel launch latency in cycles. Default: 0
-gpgpu_cdp_enabled                      0 # Turn on CDP
-gpgpu_TB_launch_latency                    0 # thread block launch latency in cycles. Default: 0
DRAM Timing Options:
nbk                                    16 # number of banks
CCD                                     1 # column to column delay
RRD                                     3 # minimal delay between activation of rows in different banks
RCD                                    12 # row to column delay
RAS                                    28 # time needed to activate row
RP                                     12 # time needed to precharge (deactivate) row
RC                                     40 # row cycle time
CDLR                                    3 # switching from write to read (changes tWTR)
WR                                     10 # last data-in to row precharge
CL                                     12 # CAS latency
WL                                      2 # Write latency
nbkgrp                                  4 # number of bank groups
CCDL                                    2 # column to column delay between accesses to different bank groups
RTPL                                    3 # read to precharge delay between accesses to different bank groups
Total number of memory sub partition = 64
addr_dec_mask[CHIP]  = 0000000000001f00 	high:13 low:8
addr_dec_mask[BK]    = 00000000000e2000 	high:20 low:13
addr_dec_mask[ROW]   = 00000001fff00000 	high:33 low:20
addr_dec_mask[COL]   = 000000000001c0ff 	high:17 low:0
addr_dec_mask[BURST] = 000000000000001f 	high:5 low:0
sub_partition_id_mask = 0000000000002000
GPGPU-Sim uArch: clock freqs: 1132000000.000000:1132000000.000000:1132000000.000000:850000000.000000
GPGPU-Sim uArch: clock periods: 0.00000000088339222615:0.00000000088339222615:0.00000000088339222615:0.00000000117647058824
*** Initializing Memory Statistics ***
GPGPU-Sim uArch: performance model initialization complete.
self exe links to: /home/pli11/Desktop/re_test/megakv/delete/run
self exe links to: /home/pli11/Desktop/re_test/megakv/delete/run
10.1
GPGPU-Sim PTX: __cudaRegisterFatBinary, fat_cubin_handle = 1, filename=default
self exe links to: /home/pli11/Desktop/re_test/megakv/delete/run
Running md5sum using "md5sum /home/pli11/Desktop/re_test/megakv/delete/run "
self exe links to: /home/pli11/Desktop/re_test/megakv/delete/run
Extracting specific PTX file named run.1.sm_70.ptx 
GPGPU-Sim PTX: __cudaRegisterFunction _Z11hash_deleteP7ielem_sP8bucket_sii : hostFun 0x0x40246f, fat_cubin_handle = 1
GPGPU-Sim PTX: Parsing run.1.sm_70.ptx
GPGPU-Sim PTX: instruction assembly for function '_Z16hash_delete_nvmbP7ielem_sP8bucket_sii'...   done.
GPGPU-Sim PTX: instruction assembly for function '_Z16hash_delete_nvmoP7ielem_sP8bucket_sii'...   done.
GPGPU-Sim PTX: instruction assembly for function '_Z16hash_delete_nvmuP7ielem_sP8bucket_sii'...   done.
GPGPU-Sim PTX: instruction assembly for function '_Z11kernel_l2wbv'...   done.
GPGPU-Sim PTX: instruction assembly for function '_Z15kernel_l2wb_pctv'...   done.
GPGPU-Sim PTX: instruction assembly for function '_Z11hash_deleteP7ielem_sP8bucket_sii'...   done.
GPGPU-Sim PTX: finished parsing EMBEDDED .ptx file run.1.sm_70.ptx
GPGPU-Sim PTX: loading globals with explicit initializers... 
GPGPU-Sim PTX: finished loading globals (0 bytes total).
GPGPU-Sim PTX: loading constants with explicit initializers...  done.
GPGPU-Sim PTX: Loading PTXInfo from run.1.sm_70.ptx
GPGPU-Sim PTX: Kernel '_Z11hash_deleteP7ielem_sP8bucket_sii' : regs=15, lmem=0, smem=0, cmem=376
GPGPU-Sim PTX: Kernel '_Z15kernel_l2wb_pctv' : regs=8, lmem=0, smem=0, cmem=352
GPGPU-Sim PTX: Kernel '_Z11kernel_l2wbv' : regs=8, lmem=0, smem=0, cmem=352
GPGPU-Sim PTX: Kernel '_Z16hash_delete_nvmuP7ielem_sP8bucket_sii' : regs=17, lmem=0, smem=0, cmem=376
GPGPU-Sim PTX: Kernel '_Z16hash_delete_nvmoP7ielem_sP8bucket_sii' : regs=17, lmem=0, smem=0, cmem=376
GPGPU-Sim PTX: Kernel '_Z16hash_delete_nvmbP7ielem_sP8bucket_sii' : regs=17, lmem=0, smem=0, cmem=376
GPGPU-Sim PTX: __cudaRegisterFunction _Z15kernel_l2wb_pctv : hostFun 0x0x40231f, fat_cubin_handle = 1
GPGPU-Sim PTX: __cudaRegisterFunction _Z11kernel_l2wbv : hostFun 0x0x402225, fat_cubin_handle = 1
GPGPU-Sim PTX: __cudaRegisterFunction _Z16hash_delete_nvmuP7ielem_sP8bucket_sii : hostFun 0x0x402108, fat_cubin_handle = 1
GPGPU-Sim PTX: __cudaRegisterFunction _Z16hash_delete_nvmoP7ielem_sP8bucket_sii : hostFun 0x0x401f95, fat_cubin_handle = 1
GPGPU-Sim PTX: __cudaRegisterFunction _Z16hash_delete_nvmbP7ielem_sP8bucket_sii : hostFun 0x0x401e22, fat_cubin_handle = 1
GPGPU-Sim PTX: cudaStreamCreate
GPGPU-Sim: synchronize waiting for inactive GPU simulation
GPGPU-Sim API: Stream Manager State
GPGPU-Sim API:    stream 1 has 1 operations
GPGPU-Sim API:       0 :  stream operation memcpy host-to-device
GPGPU-Sim: detected inactive GPU simulation thread
GPGPU-Sim PTX: Setting up arguments for 8 bytes starting at 0x7fff2300d768..
GPGPU-Sim PTX: Setting up arguments for 8 bytes starting at 0x7fff2300d760..
GPGPU-Sim PTX: Setting up arguments for 4 bytes starting at 0x7fff2300d75c..
GPGPU-Sim PTX: Setting up arguments for 4 bytes starting at 0x7fff2300d758..

GPGPU-Sim PTX: cudaLaunch for 0x0x40246f (mode=performance simulation) on stream 1
GPGPU-Sim PTX: finding reconvergence points for '_Z11hash_deleteP7ielem_sP8bucket_sii'...
GPGPU-Sim PTX: Finding dominators for '_Z11hash_deleteP7ielem_sP8bucket_sii'...
GPGPU-Sim PTX: Finding immediate dominators for '_Z11hash_deleteP7ielem_sP8bucket_sii'...
GPGPU-Sim PTX: Finding postdominators for '_Z11hash_deleteP7ielem_sP8bucket_sii'...
GPGPU-Sim PTX: Finding immediate postdominators for '_Z11hash_deleteP7ielem_sP8bucket_sii'...
GPGPU-Sim PTX: pre-decoding instructions for '_Z11hash_deleteP7ielem_sP8bucket_sii'...
GPGPU-Sim PTX: reconvergence points for _Z11hash_deleteP7ielem_sP8bucket_sii...
GPGPU-Sim PTX:  1 (potential) branch divergence @  PC=0x980 (run.1.sm_70.ptx:504) @%p4 bra BB5_12;
GPGPU-Sim PTX:    immediate post dominator      @  PC=0xb70 (run.1.sm_70.ptx:583) ret;
GPGPU-Sim PTX:  2 (potential) branch divergence @  PC=0xa20 (run.1.sm_70.ptx:527) @%p6 bra BB5_4;
GPGPU-Sim PTX:    immediate post dominator      @  PC=0xa40 (run.1.sm_70.ptx:534) mov.u32 %r20, -1;
GPGPU-Sim PTX:  3 (potential) branch divergence @  PC=0xa68 (run.1.sm_70.ptx:539) @%p7 bra BB5_7;
GPGPU-Sim PTX:    immediate post dominator      @  PC=0xaa0 (run.1.sm_70.ptx:550) shr.s32 %r26, %r6, %r3;
GPGPU-Sim PTX:  4 (potential) branch divergence @  PC=0xa88 (run.1.sm_70.ptx:544) @%p8 bra BB5_7;
GPGPU-Sim PTX:    immediate post dominator      @  PC=0xaa0 (run.1.sm_70.ptx:550) shr.s32 %r26, %r6, %r3;
GPGPU-Sim PTX:  5 (potential) branch divergence @  PC=0xab8 (run.1.sm_70.ptx:553) @%p9 bra BB5_11;
GPGPU-Sim PTX:    immediate post dominator      @  PC=0xb50 (run.1.sm_70.ptx:577) cvt.u32.u64%r38, %rd4;
GPGPU-Sim PTX:  6 (potential) branch divergence @  PC=0xb18 (run.1.sm_70.ptx:566) @%p10 bra BB5_11;
GPGPU-Sim PTX:    immediate post dominator      @  PC=0xb50 (run.1.sm_70.ptx:577) cvt.u32.u64%r38, %rd4;
GPGPU-Sim PTX:  7 (potential) branch divergence @  PC=0xb38 (run.1.sm_70.ptx:571) @%p11 bra BB5_11;
GPGPU-Sim PTX:    immediate post dominator      @  PC=0xb50 (run.1.sm_70.ptx:577) cvt.u32.u64%r38, %rd4;
GPGPU-Sim PTX:  8 (potential) branch divergence @  PC=0xb68 (run.1.sm_70.ptx:580) @%p12 bra BB5_2;
GPGPU-Sim PTX:    immediate post dominator      @  PC=0xb70 (run.1.sm_70.ptx:583) ret;
GPGPU-Sim PTX: ... end of reconvergence points for _Z11hash_deleteP7ielem_sP8bucket_sii
GPGPU-Sim PTX: ... done pre-decoding instructions for '_Z11hash_deleteP7ielem_sP8bucket_sii'.
GPGPU-Sim PTX: pushing kernel '_Z11hash_deleteP7ielem_sP8bucket_sii' to stream 1, gridDim= (8,1,1) blockDim = (1024,1,1) 
GPGPU-Sim: synchronize waiting for inactive GPU simulation
GPGPU-Sim API: Stream Manager State
GPGPU-Sim API:    stream 1 has 1 operations
GPGPU-Sim API:       0 :  stream operation kernel
GPGPU-Sim uArch: Shader 0 bind to kernel 1 '_Z11hash_deleteP7ielem_sP8bucket_sii'
GPGPU-Sim uArch: CTA/core = 2, limited by: threads
GPGPU-Sim: Reconfigure L1 cache to 128KB
GPGPU-Sim uArch: Shader 1 bind to kernel 1 '_Z11hash_deleteP7ielem_sP8bucket_sii'
GPGPU-Sim uArch: Shader 2 bind to kernel 1 '_Z11hash_deleteP7ielem_sP8bucket_sii'
GPGPU-Sim uArch: Shader 3 bind to kernel 1 '_Z11hash_deleteP7ielem_sP8bucket_sii'
GPGPU-Sim uArch: Shader 4 bind to kernel 1 '_Z11hash_deleteP7ielem_sP8bucket_sii'
GPGPU-Sim uArch: Shader 5 bind to kernel 1 '_Z11hash_deleteP7ielem_sP8bucket_sii'
GPGPU-Sim uArch: Shader 6 bind to kernel 1 '_Z11hash_deleteP7ielem_sP8bucket_sii'
GPGPU-Sim uArch: Shader 7 bind to kernel 1 '_Z11hash_deleteP7ielem_sP8bucket_sii'
Destroy streams for kernel 1: size 0
kernel_name = _Z11hash_deleteP7ielem_sP8bucket_sii 
kernel_launch_uid = 1 
gpu_sim_cycle = 131844
gpu_sim_insn = 15730188
gpu_ipc =     119.3091
gpu_tot_sim_cycle = 131844
gpu_tot_sim_insn = 15730188
gpu_tot_ipc =     119.3091
gpu_tot_issued_cta = 8
gpu_occupancy = 48.9325% 
gpu_tot_occupancy = 48.9325% 
max_total_param_size = 0
gpu_stall_dramfull = 0
gpu_stall_icnt2sh    = 0
partiton_level_parallism =       1.6778
partiton_level_parallism_total  =       1.6778
partiton_level_parallism_util =       2.1462
partiton_level_parallism_util_total  =       2.1462
L2_BW  =      60.7750 GB/Sec
L2_BW_total  =      60.7750 GB/Sec
gpu_total_sim_rate=47523

========= Core cache stats =========
L1I_cache:
	L1I_total_cache_accesses = 0
	L1I_total_cache_misses = 0
	L1I_total_cache_pending_hits = 0
	L1I_total_cache_reservation_fails = 0
L1D_cache:
	L1D_cache_core[0]: Access = 61446, Miss = 19987, Miss_rate = 0.325, Pending_hits = 0, Reservation_fails = 0
	L1D_cache_core[1]: Access = 61447, Miss = 19936, Miss_rate = 0.324, Pending_hits = 0, Reservation_fails = 0
	L1D_cache_core[2]: Access = 61447, Miss = 19854, Miss_rate = 0.323, Pending_hits = 0, Reservation_fails = 0
	L1D_cache_core[3]: Access = 61449, Miss = 19794, Miss_rate = 0.322, Pending_hits = 0, Reservation_fails = 0
	L1D_cache_core[4]: Access = 61444, Miss = 20009, Miss_rate = 0.326, Pending_hits = 0, Reservation_fails = 0
	L1D_cache_core[5]: Access = 61440, Miss = 19985, Miss_rate = 0.325, Pending_hits = 0, Reservation_fails = 0
	L1D_cache_core[6]: Access = 61446, Miss = 19882, Miss_rate = 0.324, Pending_hits = 0, Reservation_fails = 0
	L1D_cache_core[7]: Access = 61449, Miss = 19900, Miss_rate = 0.324, Pending_hits = 0, Reservation_fails = 0
	L1D_cache_core[8]: Access = 0, Miss = 0, Miss_rate = -nan, Pending_hits = 0, Reservation_fails = 0
	L1D_cache_core[9]: Access = 0, Miss = 0, Miss_rate = -nan, Pending_hits = 0, Reservation_fails = 0
	L1D_cache_core[10]: Access = 0, Miss = 0, Miss_rate = -nan, Pending_hits = 0, Reservation_fails = 0
	L1D_cache_core[11]: Access = 0, Miss = 0, Miss_rate = -nan, Pending_hits = 0, Reservation_fails = 0
	L1D_cache_core[12]: Access = 0, Miss = 0, Miss_rate = -nan, Pending_hits = 0, Reservation_fails = 0
	L1D_cache_core[13]: Access = 0, Miss = 0, Miss_rate = -nan, Pending_hits = 0, Reservation_fails = 0
	L1D_cache_core[14]: Access = 0, Miss = 0, Miss_rate = -nan, Pending_hits = 0, Reservation_fails = 0
	L1D_cache_core[15]: Access = 0, Miss = 0, Miss_rate = -nan, Pending_hits = 0, Reservation_fails = 0
	L1D_cache_core[16]: Access = 0, Miss = 0, Miss_rate = -nan, Pending_hits = 0, Reservation_fails = 0
	L1D_cache_core[17]: Access = 0, Miss = 0, Miss_rate = -nan, Pending_hits = 0, Reservation_fails = 0
	L1D_cache_core[18]: Access = 0, Miss = 0, Miss_rate = -nan, Pending_hits = 0, Reservation_fails = 0
	L1D_cache_core[19]: Access = 0, Miss = 0, Miss_rate = -nan, Pending_hits = 0, Reservation_fails = 0
	L1D_cache_core[20]: Access = 0, Miss = 0, Miss_rate = -nan, Pending_hits = 0, Reservation_fails = 0
	L1D_cache_core[21]: Access = 0, Miss = 0, Miss_rate = -nan, Pending_hits = 0, Reservation_fails = 0
	L1D_cache_core[22]: Access = 0, Miss = 0, Miss_rate = -nan, Pending_hits = 0, Reservation_fails = 0
	L1D_cache_core[23]: Access = 0, Miss = 0, Miss_rate = -nan, Pending_hits = 0, Reservation_fails = 0
	L1D_cache_core[24]: Access = 0, Miss = 0, Miss_rate = -nan, Pending_hits = 0, Reservation_fails = 0
	L1D_cache_core[25]: Access = 0, Miss = 0, Miss_rate = -nan, Pending_hits = 0, Reservation_fails = 0
	L1D_cache_core[26]: Access = 0, Miss = 0, Miss_rate = -nan, Pending_hits = 0, Reservation_fails = 0
	L1D_cache_core[27]: Access = 0, Miss = 0, Miss_rate = -nan, Pending_hits = 0, Reservation_fails = 0
	L1D_cache_core[28]: Access = 0, Miss = 0, Miss_rate = -nan, Pending_hits = 0, Reservation_fails = 0
	L1D_cache_core[29]: Access = 0, Miss = 0, Miss_rate = -nan, Pending_hits = 0, Reservation_fails = 0
	L1D_cache_core[30]: Access = 0, Miss = 0, Miss_rate = -nan, Pending_hits = 0, Reservation_fails = 0
	L1D_cache_core[31]: Access = 0, Miss = 0, Miss_rate = -nan, Pending_hits = 0, Reservation_fails = 0
	L1D_cache_core[32]: Access = 0, Miss = 0, Miss_rate = -nan, Pending_hits = 0, Reservation_fails = 0
	L1D_cache_core[33]: Access = 0, Miss = 0, Miss_rate = -nan, Pending_hits = 0, Reservation_fails = 0
	L1D_cache_core[34]: Access = 0, Miss = 0, Miss_rate = -nan, Pending_hits = 0, Reservation_fails = 0
	L1D_cache_core[35]: Access = 0, Miss = 0, Miss_rate = -nan, Pending_hits = 0, Reservation_fails = 0
	L1D_cache_core[36]: Access = 0, Miss = 0, Miss_rate = -nan, Pending_hits = 0, Reservation_fails = 0
	L1D_cache_core[37]: Access = 0, Miss = 0, Miss_rate = -nan, Pending_hits = 0, Reservation_fails = 0
	L1D_cache_core[38]: Access = 0, Miss = 0, Miss_rate = -nan, Pending_hits = 0, Reservation_fails = 0
	L1D_cache_core[39]: Access = 0, Miss = 0, Miss_rate = -nan, Pending_hits = 0, Reservation_fails = 0
	L1D_cache_core[40]: Access = 0, Miss = 0, Miss_rate = -nan, Pending_hits = 0, Reservation_fails = 0
	L1D_cache_core[41]: Access = 0, Miss = 0, Miss_rate = -nan, Pending_hits = 0, Reservation_fails = 0
	L1D_cache_core[42]: Access = 0, Miss = 0, Miss_rate = -nan, Pending_hits = 0, Reservation_fails = 0
	L1D_cache_core[43]: Access = 0, Miss = 0, Miss_rate = -nan, Pending_hits = 0, Reservation_fails = 0
	L1D_cache_core[44]: Access = 0, Miss = 0, Miss_rate = -nan, Pending_hits = 0, Reservation_fails = 0
	L1D_cache_core[45]: Access = 0, Miss = 0, Miss_rate = -nan, Pending_hits = 0, Reservation_fails = 0
	L1D_cache_core[46]: Access = 0, Miss = 0, Miss_rate = -nan, Pending_hits = 0, Reservation_fails = 0
	L1D_cache_core[47]: Access = 0, Miss = 0, Miss_rate = -nan, Pending_hits = 0, Reservation_fails = 0
	L1D_cache_core[48]: Access = 0, Miss = 0, Miss_rate = -nan, Pending_hits = 0, Reservation_fails = 0
	L1D_cache_core[49]: Access = 0, Miss = 0, Miss_rate = -nan, Pending_hits = 0, Reservation_fails = 0
	L1D_cache_core[50]: Access = 0, Miss = 0, Miss_rate = -nan, Pending_hits = 0, Reservation_fails = 0
	L1D_cache_core[51]: Access = 0, Miss = 0, Miss_rate = -nan, Pending_hits = 0, Reservation_fails = 0
	L1D_cache_core[52]: Access = 0, Miss = 0, Miss_rate = -nan, Pending_hits = 0, Reservation_fails = 0
	L1D_cache_core[53]: Access = 0, Miss = 0, Miss_rate = -nan, Pending_hits = 0, Reservation_fails = 0
	L1D_cache_core[54]: Access = 0, Miss = 0, Miss_rate = -nan, Pending_hits = 0, Reservation_fails = 0
	L1D_cache_core[55]: Access = 0, Miss = 0, Miss_rate = -nan, Pending_hits = 0, Reservation_fails = 0
	L1D_cache_core[56]: Access = 0, Miss = 0, Miss_rate = -nan, Pending_hits = 0, Reservation_fails = 0
	L1D_cache_core[57]: Access = 0, Miss = 0, Miss_rate = -nan, Pending_hits = 0, Reservation_fails = 0
	L1D_cache_core[58]: Access = 0, Miss = 0, Miss_rate = -nan, Pending_hits = 0, Reservation_fails = 0
	L1D_cache_core[59]: Access = 0, Miss = 0, Miss_rate = -nan, Pending_hits = 0, Reservation_fails = 0
	L1D_cache_core[60]: Access = 0, Miss = 0, Miss_rate = -nan, Pending_hits = 0, Reservation_fails = 0
	L1D_cache_core[61]: Access = 0, Miss = 0, Miss_rate = -nan, Pending_hits = 0, Reservation_fails = 0
	L1D_cache_core[62]: Access = 0, Miss = 0, Miss_rate = -nan, Pending_hits = 0, Reservation_fails = 0
	L1D_cache_core[63]: Access = 0, Miss = 0, Miss_rate = -nan, Pending_hits = 0, Reservation_fails = 0
	L1D_cache_core[64]: Access = 0, Miss = 0, Miss_rate = -nan, Pending_hits = 0, Reservation_fails = 0
	L1D_cache_core[65]: Access = 0, Miss = 0, Miss_rate = -nan, Pending_hits = 0, Reservation_fails = 0
	L1D_cache_core[66]: Access = 0, Miss = 0, Miss_rate = -nan, Pending_hits = 0, Reservation_fails = 0
	L1D_cache_core[67]: Access = 0, Miss = 0, Miss_rate = -nan, Pending_hits = 0, Reservation_fails = 0
	L1D_cache_core[68]: Access = 0, Miss = 0, Miss_rate = -nan, Pending_hits = 0, Reservation_fails = 0
	L1D_cache_core[69]: Access = 0, Miss = 0, Miss_rate = -nan, Pending_hits = 0, Reservation_fails = 0
	L1D_cache_core[70]: Access = 0, Miss = 0, Miss_rate = -nan, Pending_hits = 0, Reservation_fails = 0
	L1D_cache_core[71]: Access = 0, Miss = 0, Miss_rate = -nan, Pending_hits = 0, Reservation_fails = 0
	L1D_cache_core[72]: Access = 0, Miss = 0, Miss_rate = -nan, Pending_hits = 0, Reservation_fails = 0
	L1D_cache_core[73]: Access = 0, Miss = 0, Miss_rate = -nan, Pending_hits = 0, Reservation_fails = 0
	L1D_cache_core[74]: Access = 0, Miss = 0, Miss_rate = -nan, Pending_hits = 0, Reservation_fails = 0
	L1D_cache_core[75]: Access = 0, Miss = 0, Miss_rate = -nan, Pending_hits = 0, Reservation_fails = 0
	L1D_cache_core[76]: Access = 0, Miss = 0, Miss_rate = -nan, Pending_hits = 0, Reservation_fails = 0
	L1D_cache_core[77]: Access = 0, Miss = 0, Miss_rate = -nan, Pending_hits = 0, Reservation_fails = 0
	L1D_cache_core[78]: Access = 0, Miss = 0, Miss_rate = -nan, Pending_hits = 0, Reservation_fails = 0
	L1D_cache_core[79]: Access = 0, Miss = 0, Miss_rate = -nan, Pending_hits = 0, Reservation_fails = 0
	L1D_total_cache_accesses = 491568
	L1D_total_cache_misses = 159347
	L1D_total_cache_miss_rate = 0.3242
	L1D_total_cache_pending_hits = 0
	L1D_total_cache_reservation_fails = 0
	L1D_cache_data_port_util = 0.331
	L1D_cache_fill_port_util = 0.155
L1C_cache:
	L1C_total_cache_accesses = 0
	L1C_total_cache_misses = 0
	L1C_total_cache_pending_hits = 0
	L1C_total_cache_reservation_fails = 0
L1T_cache:
	L1T_total_cache_accesses = 0
	L1T_total_cache_misses = 0
	L1T_total_cache_pending_hits = 0
	L1T_total_cache_reservation_fails = 0

Total_core_cache_stats:
	Total_core_cache_stats_breakdown[GLOBAL_ACC_R][HIT] = 266685
	Total_core_cache_stats_breakdown[GLOBAL_ACC_R][HIT_RESERVED] = 0
	Total_core_cache_stats_breakdown[GLOBAL_ACC_R][MISS] = 76352
	Total_core_cache_stats_breakdown[GLOBAL_ACC_R][RESERVATION_FAIL] = 0
	Total_core_cache_stats_breakdown[GLOBAL_ACC_R][SECTOR_MISS] = 82995
	Total_core_cache_stats_breakdown[LOCAL_ACC_R][HIT] = 0
	Total_core_cache_stats_breakdown[LOCAL_ACC_R][HIT_RESERVED] = 0
	Total_core_cache_stats_breakdown[LOCAL_ACC_R][MISS] = 0
	Total_core_cache_stats_breakdown[LOCAL_ACC_R][RESERVATION_FAIL] = 0
	Total_core_cache_stats_breakdown[LOCAL_ACC_R][SECTOR_MISS] = 0
	Total_core_cache_stats_breakdown[CONST_ACC_R][HIT] = 0
	Total_core_cache_stats_breakdown[CONST_ACC_R][HIT_RESERVED] = 0
	Total_core_cache_stats_breakdown[CONST_ACC_R][MISS] = 0
	Total_core_cache_stats_breakdown[CONST_ACC_R][RESERVATION_FAIL] = 0
	Total_core_cache_stats_breakdown[CONST_ACC_R][SECTOR_MISS] = 0
	Total_core_cache_stats_breakdown[TEXTURE_ACC_R][HIT] = 0
	Total_core_cache_stats_breakdown[TEXTURE_ACC_R][HIT_RESERVED] = 0
	Total_core_cache_stats_breakdown[TEXTURE_ACC_R][MISS] = 0
	Total_core_cache_stats_breakdown[TEXTURE_ACC_R][RESERVATION_FAIL] = 0
	Total_core_cache_stats_breakdown[TEXTURE_ACC_R][SECTOR_MISS] = 0
	Total_core_cache_stats_breakdown[GLOBAL_ACC_W][HIT] = 65536
	Total_core_cache_stats_breakdown[GLOBAL_ACC_W][HIT_RESERVED] = 0
	Total_core_cache_stats_breakdown[GLOBAL_ACC_W][MISS] = 0
	Total_core_cache_stats_breakdown[GLOBAL_ACC_W][RESERVATION_FAIL] = 0
	Total_core_cache_stats_breakdown[GLOBAL_ACC_W][SECTOR_MISS] = 0
	Total_core_cache_stats_breakdown[LOCAL_ACC_W][HIT] = 0
	Total_core_cache_stats_breakdown[LOCAL_ACC_W][HIT_RESERVED] = 0
	Total_core_cache_stats_breakdown[LOCAL_ACC_W][MISS] = 0
	Total_core_cache_stats_breakdown[LOCAL_ACC_W][RESERVATION_FAIL] = 0
	Total_core_cache_stats_breakdown[LOCAL_ACC_W][SECTOR_MISS] = 0
	Total_core_cache_stats_breakdown[L1_WRBK_ACC][HIT] = 0
	Total_core_cache_stats_breakdown[L1_WRBK_ACC][HIT_RESERVED] = 0
	Total_core_cache_stats_breakdown[L1_WRBK_ACC][MISS] = 0
	Total_core_cache_stats_breakdown[L1_WRBK_ACC][RESERVATION_FAIL] = 0
	Total_core_cache_stats_breakdown[L1_WRBK_ACC][SECTOR_MISS] = 0
	Total_core_cache_stats_breakdown[L2_WRBK_ACC][HIT] = 0
	Total_core_cache_stats_breakdown[L2_WRBK_ACC][HIT_RESERVED] = 0
	Total_core_cache_stats_breakdown[L2_WRBK_ACC][MISS] = 0
	Total_core_cache_stats_breakdown[L2_WRBK_ACC][RESERVATION_FAIL] = 0
	Total_core_cache_stats_breakdown[L2_WRBK_ACC][SECTOR_MISS] = 0
	Total_core_cache_stats_breakdown[INST_ACC_R][HIT] = 0
	Total_core_cache_stats_breakdown[INST_ACC_R][HIT_RESERVED] = 0
	Total_core_cache_stats_breakdown[INST_ACC_R][MISS] = 0
	Total_core_cache_stats_breakdown[INST_ACC_R][RESERVATION_FAIL] = 0
	Total_core_cache_stats_breakdown[INST_ACC_R][SECTOR_MISS] = 0
	Total_core_cache_stats_breakdown[L1_WR_ALLOC_R][HIT] = 0
	Total_core_cache_stats_breakdown[L1_WR_ALLOC_R][HIT_RESERVED] = 0
	Total_core_cache_stats_breakdown[L1_WR_ALLOC_R][MISS] = 0
	Total_core_cache_stats_breakdown[L1_WR_ALLOC_R][RESERVATION_FAIL] = 0
	Total_core_cache_stats_breakdown[L1_WR_ALLOC_R][SECTOR_MISS] = 0
	Total_core_cache_stats_breakdown[L2_WR_ALLOC_R][HIT] = 0
	Total_core_cache_stats_breakdown[L2_WR_ALLOC_R][HIT_RESERVED] = 0
	Total_core_cache_stats_breakdown[L2_WR_ALLOC_R][MISS] = 0
	Total_core_cache_stats_breakdown[L2_WR_ALLOC_R][RESERVATION_FAIL] = 0
	Total_core_cache_stats_breakdown[L2_WR_ALLOC_R][SECTOR_MISS] = 0
	Total_core_cache_stats_breakdown[GLOBAL_ACC_R][TOTAL_ACCESS] = 426032
	Total_core_cache_stats_breakdown[GLOBAL_ACC_W][TOTAL_ACCESS] = 65536

Total_core_cache_fail_stats:
Shader 0 warp_id issue ditsribution:
warp_id:
0, 1, 2, 3, 4, 5, 6, 7, 8, 9, 10, 11, 12, 13, 14, 15, 16, 17, 18, 19, 20, 21, 22, 23, 24, 25, 26, 27, 28, 29, 30, 31, 
distro:
2450, 2450, 2450, 2450, 2450, 2450, 2450, 2450, 2450, 2450, 2450, 2450, 2450, 2450, 2450, 2450, 2450, 2450, 2450, 2450, 2450, 2450, 2450, 2450, 2468, 2450, 2450, 2450, 2450, 2468, 2450, 2450, 
gpgpu_n_tot_thrd_icount = 20080768
gpgpu_n_tot_w_icount = 627524
gpgpu_n_stall_shd_mem = 327620
gpgpu_n_mem_read_local = 0
gpgpu_n_mem_write_local = 0
gpgpu_n_mem_read_global = 155666
gpgpu_n_mem_write_global = 65536
gpgpu_n_mem_texture = 0
gpgpu_n_mem_const = 0
gpgpu_n_load_insn  = 2883980
gpgpu_n_store_insn = 65536
gpgpu_n_shmem_insn = 0
gpgpu_n_sstarr_insn = 0
gpgpu_n_tex_insn = 0
gpgpu_n_const_mem_insn = 0
gpgpu_n_param_mem_insn = 32768
gpgpu_n_shmem_bkconflict = 0
gpgpu_n_cache_bkconflict = 0
gpgpu_n_intrawarp_mshr_merge = 0
gpgpu_n_cmem_portconflict = 0
gpgpu_stall_shd_mem[c_mem][resource_stall] = 0
gpgpu_stall_shd_mem[s_mem][bk_conf] = 0
gpgpu_stall_shd_mem[gl_mem][resource_stall] = 327620
gpgpu_stall_shd_mem[gl_mem][coal_stall] = 0
gpgpu_stall_shd_mem[gl_mem][data_port_stall] = 0
gpu_reg_bank_conflict_stalls = 0
Warp Occupancy Distribution:
Stall:21188	W0_Idle:22369	W0_Scoreboard:3344611	W1:108	W2:0	W3:162	W4:147294	W5:0	W6:0	W7:0	W8:216	W9:0	W10:0	W11:0	W12:0	W13:0	W14:0	W15:0	W16:0	W17:0	W18:0	W19:0	W20:0	W21:0	W22:0	W23:0	W24:0	W25:0	W26:0	W27:0	W28:0	W29:0	W30:0	W31:0	W32:479744
single_issue_nums: WS0:156872	WS1:156854	WS2:156890	WS3:156908	
dual_issue_nums: WS0:0	WS1:0	WS2:0	WS3:0	
traffic_breakdown_coretomem[GLOBAL_ACC_R] = 1245328 {8:155666,}
traffic_breakdown_coretomem[GLOBAL_ACC_W] = 2621440 {40:65536,}
traffic_breakdown_memtocore[GLOBAL_ACC_R] = 6226640 {40:155666,}
traffic_breakdown_memtocore[GLOBAL_ACC_W] = 524288 {8:65536,}
maxmflatency = 1037 
max_icnt2mem_latency = 27 
maxmrqlatency = 279 
max_icnt2sh_latency = 25 
averagemflatency = 441 
avg_icnt2mem_latency = 23 
avg_mrq_latency = 7 
avg_icnt2sh_latency = 2 
mrq_lat_table:107405 	26214 	1458 	2266 	8021 	9383 	3361 	417 	4 	0 	0 	0 	0 	0 	0 	0 	0 	0 	0 	0 	0 	0 	0 	0 	0 	0 	0 	0 	0 	0 	0 	0 	
dq_lat_table:0 	0 	0 	0 	0 	0 	0 	0 	0 	0 	0 	0 	0 	0 	0 	0 	0 	0 	0 	0 	0 	0 	0 	0 	0 	0 	0 	0 	0 	0 	0 	0 	
mf_lat_table:0 	0 	0 	0 	0 	0 	0 	83133 	70779 	67285 	5 	0 	0 	0 	0 	0 	0 	0 	0 	0 	0 	0 	0 	0 	0 	0 	0 	0 	0 	0 	0 	0 	
icnt2mem_lat_table:0 	0 	0 	0 	221202 	0 	0 	0 	0 	0 	0 	0 	0 	0 	0 	0 	0 	0 	0 	0 	0 	0 	0 	0 	
icnt2sh_lat_table:0 	203810 	16741 	646 	5 	0 	0 	0 	0 	0 	0 	0 	0 	0 	0 	0 	0 	0 	0 	0 	0 	0 	0 	0 	
mf_lat_pw_table:0 	0 	0 	0 	0 	0 	0 	1 	146 	106 	0 	0 	0 	0 	0 	0 	0 	0 	0 	0 	0 	0 	0 	0 	0 	0 	0 	0 	0 	0 	0 	0 	
maximum concurrent accesses to same row:
dram[0]:         2         2         2         2         3         2         5         8         5         8         8        10         2         2         2         2 
dram[1]:         2         2         2         2         2         2         6         4         8         7         5         7         4         2         4         4 
dram[2]:         3         2         2         2         2         4         4         8         7         4         9         5         2         2         2         2 
dram[3]:         2         4         2         2         4         2         4         4         5         6         6         5         2         2         2         4 
dram[4]:         2         2         2         2         2         2         4         4         8         7         7         7         2         2         2         2 
dram[5]:         2         3         2         2         3         3         4         4         7         6         8         9         2         2         2         2 
dram[6]:         2         2         2         2         2         3         5         2         5        13         8         4         2         2         2         2 
dram[7]:         2         3         2         2         2         2         4         3         8         4         4         8         2         2         2         2 
dram[8]:         2         2         2         3         2         2         3         5         5         8        14         7         2         2         4         2 
dram[9]:         2         2         2         2         2         2         6         3         8         4         8         5         2         3         2         2 
dram[10]:         2         2         2         2         2         2         4         8        10         9         5         8         2         2         2         2 
dram[11]:         2         2         2         2         2         4         4         4         8         8        12         9         2         2         2         2 
dram[12]:         2         2         2         2         4         2         4         6         8        10        10         7         2         2         2         2 
dram[13]:         2         2         2         2         2         2         5         4         5         5         7         6         2         2         2         2 
dram[14]:         2         2         4         2         2         2         4         4         6         4         8         6         2         2         2         4 
dram[15]:         2         2         2         2         4         2         3         4         6         7         7        11         2         2         2         2 
dram[16]:         2         2         2         2         2         2         6         4         5         7         8         8         2         3         2         2 
dram[17]:         2         2         4         2         2         3         4         3         7         8         7         5         2         2         2         4 
dram[18]:         2         2         2         2         3         3         2         6        10         8         5         8         2         3         2         2 
dram[19]:         2         3         2         2         2         2         7         6         7         6         9         7         2         2         2         2 
dram[20]:         2         2         2         2         2         2         8         6         6        13         8        11         2         3         2         2 
dram[21]:         2         2         2         2         2         2         4         6        16        11         5         8         2         2         2         2 
dram[22]:         2         2         2         2         3         3         7         3         5         7         5         6         2         2         2         2 
dram[23]:         2         2         2         2         2         4         4         5         7         8         5         6         2         2         2         2 
dram[24]:         2         2         2         2         2         2         2        13         6         6         8         8         2         2         2         2 
dram[25]:         2         2         2         2         3         2         2         4         5         8        10         7         2         2         2         2 
dram[26]:         2         2         2         2         4         2         4         4        11         9        10         7         3         2         2         2 
dram[27]:         2         2         2         2         2         2         4         4        11         5         8         8         2         2         2         4 
dram[28]:         2         2         2         2         2         2         4         3         5         6         8         7         2         2         2         2 
dram[29]:         2         2         2         2         2         2         7         4         7         5        11         7         2         2         2         2 
dram[30]:         2         2         2         2         2         3         5         4         6         7         7         6         2         2         2         3 
dram[31]:         4         2         2         2         2         2         4         3         7         5         8         7         2         2         2         2 
maximum service time to same row:
dram[0]:      5867      5860      5847      5866      5914      5868      6000      5862      5844      5899      5839      5836      7526      5851      5887      5882 
dram[1]:      5976      5875      5828      6403      5880      5872      5908      5882      5859      7601      5919      7382      5840      5883      5887      7550 
dram[2]:      5903      5993      7370      5919      5864      5980      5836      5973      6012      5887      5855      5851      5856      5847      7590      7533 
dram[3]:      5847      7541      7517      5876      5912      5908      7204      5839      7426      5859      5916      7373      5855      5926      5875     10042 
dram[4]:      5875      5860      5924      5864      6391      5884      7276      5910      5839      5930      5980      5995      5871      5882      5855      5918 
dram[5]:      5880      6013      5855      7188      5886      5828      5977      5899      5911      5903      5847      5871      5995      5906      5887      6576 
dram[6]:      5924      5996      6008      7172      5907      7422      5928      5832      6015      5927      6015      5859      5852      6005      5939      5831 
dram[7]:      5915      5977      7260      5981      5983      7490      5903      5910      5831      5945      7304      5839      7256      5911      5832      7580 
dram[8]:      5867      5952      5880      5875      5944      5856      5839      5904      7417      6811      5976      6382      5855      5871      5887      5918 
dram[9]:      5839      5871      5844      7279      7469      6009      5875      5872      7509      5855      7569      5856      5964      5916      5847      5867 
dram[10]:      5859      5844      6008      5851      5949      9018      5883      5948      5906      5831      5864      5926      5956      5923      5993      5878 
dram[11]:      5859      7293      5911      5860      5866      5900      6005      5904      5834      5858      6155      5831      5832      5862      5919      7283 
dram[12]:      5977      5855      5887      6162      6008      7509      5988      5907      5943      5860      5859     11289      5862      5957      5828      7557 
dram[13]:      5847      5914      5866      5855      5900      5981      5856      6013      5851      5859      5868      5883      5911      5848      5852      5919 
dram[14]:      5926      7228      5972      5875      5863      6370      5879      5899      5878      5867      6764      7421      5847      5939      5977      5960 
dram[15]:      5874      5852      5871      5872      5839      5936      7614      5875      5844      5856      5923      5831      5948      5828      5840      5996 
dram[16]:      6005      5856      6323      5868      5858      5923      5839      5927      5855      5859      5840      9060      5872      5883      5922      5847 
dram[17]:      5860      7212      5911      5989      5928      7590      5948      7454      5972      5871      5912      7324      5867      5915      5844      5884 
dram[18]:      5884      5847      5878      5943      5997      7193      5886      5952      5945      5862      5852      5904      6008      7370      5907      7541 
dram[19]:      5988      7670      6004      5927      5943      5961      5910      5831      7201      5851      8769      6012      5871      5840      5855      5939 
dram[20]:      5903      7586      5859      7177      5856      5883      5860      6000      5839      5851      5840      5906      5855      7549      5886      5948 
dram[21]:      5961      5864      5887      5900      5914      6097      5888      5879      5856      5956      7493      5831      5855      7217      7486      5922 
dram[22]:      5888      5859      5839      5834      5860      5882      5899      5924      5961      5972      5916      5831      5887      5880      7349      7410 
dram[23]:      5859      5836      5899      5874      8328      5851      5918      5904      6013      7208      6012      5872      5878      5886      5831      5900 
dram[24]:      5851      5903      5883      5973      7763      5878      7606      5852      5956      5858      5943      5997      5944      5855      5981      5854 
dram[25]:      5862      6298      5980      5867      5911      5876      7289      5855      5988      5828      5938      5831      5859      5903      7442      7295 
dram[26]:      5871      5911      5980      5988      5876      5920      5912      5902      5957      5848      5919      5832      5831      5851      5836      5936 
dram[27]:      5976      5908      5862      5831      5847      5866      5860      5883      5872      5939      5875      8554      7589      5949      5839      5851 
dram[28]:      5839      5844      5907      5908      5984      6000      5864      5924      5847      7574      5926      5943      5919      5867      5991      6005 
dram[29]:      5875      7684      5882      6078      5831      5866      5839      5924      7260      5867      6008      5961      5884      5878      5836      5859 
dram[30]:      5847      5839      5855      5923      5900      5899      7401      6005      5851      7625      5884      5980      5916      5883      5871      5941 
dram[31]:      5831      5907      5860      5904      5851      5922      5847      5928      5856      5862      5912      5839      5834      5832      5919      5836 
average row accesses per activate:
dram[0]:  1.101818  1.085324  1.105727  1.075472  1.083333  1.116981  1.136667  1.128289  1.159259  1.206226  1.233898  1.247148  1.052308  1.089347  1.117647  1.142180 
dram[1]:  1.100629  1.071942  1.088889  1.063758  1.084507  1.098246  1.109312  1.108359  1.170000  1.150000  1.173410  1.202166  1.118518  1.085366  1.117117  1.096220 
dram[2]:  1.105263  1.135135  1.050000  1.091228  1.094650  1.115703  1.168776  1.093939  1.182156  1.154930  1.233716  1.156342  1.054286  1.100418  1.067568  1.061017 
dram[3]:  1.141700  1.105839  1.117871  1.081081  1.092466  1.093633  1.064516  1.109890  1.145390  1.121495  1.205128  1.174455  1.120370  1.163180  1.134387  1.098113 
dram[4]:  1.122137  1.091549  1.097166  1.209424  1.106719  1.139738  1.081851  1.136364  1.126582  1.204918  1.226481  1.221739  1.124481  1.135965  1.097458  1.083942 
dram[5]:  1.072555  1.114391  1.073171  1.083942  1.064327  1.086957  1.105634  1.120567  1.138973  1.180556  1.171920  1.250000  1.069536  1.051988  1.080702  1.083333 
dram[6]:  1.111111  1.094737  1.070946  1.140187  1.072165  1.142241  1.106796  1.110132  1.138075  1.173375  1.217557  1.157233  1.104602  1.069277  1.092742  1.073427 
dram[7]:  1.143443  1.135021  1.082437  1.083916  1.068493  1.099206  1.101083  1.101504  1.173745  1.145215  1.237037  1.262745  1.091286  1.083032  1.091873  1.103896 
dram[8]:  1.138462  1.085809  1.127660  1.079545  1.110701  1.056140  1.107744  1.130435  1.172794  1.185714  1.208211  1.206897  1.113402  1.101626  1.107280  1.067857 
dram[9]:  1.107011  1.072368  1.053512  1.107011  1.083601  1.138095  1.103806  1.112583  1.180451  1.127660  1.203226  1.179054  1.086806  1.068259  1.100437  1.080460 
dram[10]:  1.071186  1.095588  1.121212  1.046729  1.090909  1.092199  1.161290  1.151291  1.214545  1.182156  1.159864  1.236364  1.107884  1.088803  1.071698  1.088968 
dram[11]:  1.132159  1.065744  1.110170  1.134146  1.071918  1.083056  1.134259  1.115830  1.171329  1.192308  1.212121  1.312500  1.096525  1.085409  1.136000  1.103306 
dram[12]:  1.082143  1.084459  1.099644  1.110619  1.082759  1.070175  1.110266  1.117857  1.154799  1.142857  1.250000  1.296296  1.058824  1.121771  1.054983  1.055085 
dram[13]:  1.099265  1.116592  1.149798  1.121457  1.110687  1.167421  1.153226  1.131356  1.173502  1.178571  1.206790  1.227891  1.116197  1.114943  1.079310  1.084942 
dram[14]:  1.079422  1.098039  1.093750  1.111570  1.090196  1.079710  1.065015  1.134387  1.187023  1.118343  1.239286  1.195946  1.086093  1.132701  1.070896  1.095420 
dram[15]:  1.092150  1.153509  1.097473  1.171946  1.106796  1.090566  1.078767  1.142292  1.212544  1.176471  1.253906  1.207668  1.122137  1.086142  1.121457  1.087121 
dram[16]:  1.074349  1.088435  1.056856  1.154545  1.083650  1.088561  1.112760  1.137405  1.189003  1.204969  1.216028  1.177019  1.068493  1.093863  1.068100  1.148305 
dram[17]:  1.126087  1.067524  1.146018  1.082304  1.076923  1.109848  1.094118  1.063492  1.141379  1.172758  1.217241  1.167598  1.067376  1.077170  1.080645  1.078078 
dram[18]:  1.149038  1.089965  1.103175  1.110170  1.087453  1.101124  1.127572  1.148936  1.235060  1.145270  1.220280  1.212418  1.135021  1.083969  1.110687  1.097015 
dram[19]:  1.075472  1.153846  1.089796  1.088889  1.083893  1.146552  1.110714  1.119134  1.132203  1.183544  1.174051  1.202847  1.053512  1.068627  1.094737  1.106280 
dram[20]:  1.071970  1.084211  1.196078  1.085185  1.108209  1.083045  1.110294  1.152610  1.179577  1.246753  1.217857  1.208333  1.090164  1.113208  1.105442  1.124088 
dram[21]:  1.197970  1.089655  1.135531  1.079470  1.089928  1.068841  1.105096  1.154882  1.203636  1.179577  1.211073  1.189369  1.101961  1.140426  1.086022  1.087838 
dram[22]:  1.076628  1.078431  1.102273  1.104895  1.052941  1.075235  1.142349  1.074405  1.146707  1.135762  1.211806  1.183150  1.056478  1.070632  1.090551  1.111111 
dram[23]:  1.122530  1.077703  1.132159  1.068182  1.103321  1.118852  1.107639  1.131086  1.146617  1.177419  1.203226  1.243728  1.048711  1.098485  1.075862  1.089219 
dram[24]:  1.074733  1.069079  1.116981  1.111554  1.145540  1.106299  1.120172  1.169960  1.219917  1.155709  1.273469  1.207885  1.132780  1.072917  1.096990  1.118881 
dram[25]:  1.066148  1.106557  1.124031  1.107914  1.130769  1.102941  1.094156  1.159091  1.151007  1.198276  1.166154  1.159884  1.087379  1.102273  1.125541  1.083942 
dram[26]:  1.083682  1.081699  1.111940  1.111538  1.079422  1.089494  1.125490  1.099715  1.221344  1.179487  1.226190  1.210169  1.098859  1.077739  1.085185  1.085526 
dram[27]:  1.053968  1.119850  1.118182  1.070513  1.081633  1.135021  1.085987  1.121771  1.178694  1.129032  1.163142  1.273077  1.167488  1.117886  1.075342  1.085185 
dram[28]:  1.133603  1.139344  1.100000  1.090580  1.079618  1.131356  1.104317  1.094340  1.198502  1.167832  1.190751  1.215947  1.086154  1.104167  1.073579  1.052486 
dram[29]:  1.069697  1.073529  1.079038  1.142857  1.086275  1.076159  1.203774  1.132841  1.168421  1.144876  1.205298  1.243636  1.112782  1.082759  1.101167  1.055172 
dram[30]:  1.123077  1.081272  1.052023  1.083916  1.073260  1.120690  1.116364  1.099689  1.164983  1.227799  1.173134  1.248344  1.065789  1.078313  1.089286  1.113726 
dram[31]:  1.098901  1.067857  1.079038  1.102941  1.120301  1.091255  1.141304  1.094406  1.185535  1.203704  1.202572  1.261818  1.075085  1.135338  1.078740  1.142241 
average row locality = 158529/141150 = 1.123124
number of total memory accesses made:
dram[0]:         0         0         0         0         0         0         0         0         0         0         0         0         0         0         0         0 
dram[1]:         0         0         0         0         0         0         0         0         0         0         0         0         0         0         0         0 
dram[2]:         0         0         0         0         0         0         0         0         0         0         0         0         0         0         0         0 
dram[3]:         0         0         0         0         0         0         0         0         0         0         0         0         0         0         0         0 
dram[4]:         0         0         0         0         0         0         0         0         0         0         0         0         0         0         0         0 
dram[5]:         0         0         0         0         0         0         0         0         0         0         0         0         0         0         0         0 
dram[6]:         0         0         0         0         0         0         0         0         0         0         0         0         0         0         0         0 
dram[7]:         0         0         0         0         0         0         0         0         0         0         0         0         0         0         0         0 
dram[8]:         0         0         0         0         0         0         0         0         0         0         0         0         0         0         0         0 
dram[9]:         0         0         0         0         0         0         0         0         0         0         0         0         0         0         0         0 
dram[10]:         0         0         0         0         0         0         0         0         0         0         0         0         0         0         0         0 
dram[11]:         0         0         0         0         0         0         0         0         0         0         0         0         0         0         0         0 
dram[12]:         0         0         0         0         0         0         0         0         0         0         0         0         0         0         0         0 
dram[13]:         0         0         0         0         0         0         0         0         0         0         0         0         0         0         0         0 
dram[14]:         0         0         0         0         0         0         0         0         0         0         0         0         0         0         0         0 
dram[15]:         0         0         0         0         0         0         0         0         0         0         0         0         0         0         0         0 
dram[16]:         0         0         0         0         0         0         0         0         0         0         0         0         0         0         0         0 
dram[17]:         0         0         0         0         0         0         0         0         0         0         0         0         0         0         0         0 
dram[18]:         0         0         0         0         0         0         0         0         0         0         0         0         0         0         0         0 
dram[19]:         0         0         0         0         0         0         0         0         0         0         0         0         0         0         0         0 
dram[20]:         0         0         0         0         0         0         0         0         0         0         0         0         0         0         0         0 
dram[21]:         0         0         0         0         0         0         0         0         0         0         0         0         0         0         0         0 
dram[22]:         0         0         0         0         0         0         0         0         0         0         0         0         0         0         0         0 
dram[23]:         0         0         0         0         0         0         0         0         0         0         0         0         0         0         0         0 
dram[24]:         0         0         0         0         0         0         0         0         0         0         0         0         0         0         0         0 
dram[25]:         0         0         0         0         0         0         0         0         0         0         0         0         0         0         0         0 
dram[26]:         0         0         0         0         0         0         0         0         0         0         0         0         0         0         0         0 
dram[27]:         0         0         0         0         0         0         0         0         0         0         0         0         0         0         0         0 
dram[28]:         0         0         0         0         0         0         0         0         0         0         0         0         0         0         0         0 
dram[29]:         0         0         0         0         0         0         0         0         0         0         0         0         0         0         0         0 
dram[30]:         0         0         0         0         0         0         0         0         0         0         0         0         0         0         0         0 
dram[31]:         0         0         0         0         0         0         0         0         0         0         0         0         0         0         0         0 
total accesses: 0
min_bank_accesses = 0!
min_chip_accesses = 0!
number of total read accesses:
dram[0]:       262       278       218       298       272       254       300       298       280       270       318       296       292       276       214       202 
dram[1]:       304       256       254       270       266       264       232       310       304       304       356       294       266       228       218       280 
dram[2]:       240       214       286       270       228       238       248       308       284       292       284       342       322       230       264       260 
dram[3]:       236       264       256       236       270       252       324       266       284       314       336       334       208       242       252       252 
dram[4]:       260       280       238       204       244       230       262       228       316       266       312       252       232       228       230       260 
dram[5]:       286       262       298       256       302       264       272       284       330       300       354       282       282       288       254       216 
dram[6]:       242       274       276       216       266       226       306       224       234       326       282       320       234       308       238       266 
dram[7]:       238       236       266       274       272       238       274       256       266       308       294       286       228       266       270       220 
dram[8]:       252       286       276       246       260       262       284       252       280       296       354       284       284       236       242       258 
dram[9]:       256       278       268       262       292       210       278       292       274       318       336       314       268       262       218       244 
dram[10]:       270       254       262       296       282       272       222       270       292       280       308       302       230       252       244       250 
dram[11]:       228       264       228       244       274       278       214       260       304       298       318       258       242       266       250       236 
dram[12]:       264       276       260       222       268       262       254       276       332       312       306       282       294       260       260       212 
dram[13]:       260       222       246       242       250       234       248       236       328       262       342       326       270       252       274       248 
dram[14]:       258       244       278       234       240       250       296       258       276       336       304       326       284       204       242       246 
dram[15]:       282       234       250       226       294       250       268       252       306       312       292       342       258       240       240       242 
dram[16]:       252       276       270       220       240       258       328       266       308       342       300       329       270       262       256       230 
dram[17]:       226       284       232       222       276       258       242       286       294       310       314       360       258       286       238       300 
dram[18]:       204       268       248       228       252       248       242       240       276       298       316       336       236       244       256       262 
dram[19]:       248       228       232       214       278       232       272       274       296       330       328       304       262       284       276       202 
dram[20]:       254       272       208       246       258       274       266       258       292       260       310       302       228       252       282       270 
dram[21]:       204       264       270       282       266       244       300       302       298       288       312       320       236       238       260       280 
dram[22]:       242       240       248       272       304       294       276       314       336       300       310       296       280       242       238       246 
dram[23]:       244       274       224       282       260       244       284       266       264       251       336       316       304       248       264       256 
dram[24]:       266       286       256       246       216       244       236       254       268       288       276       298       236       268       286       274 
dram[25]:       238       240       248       272       256       258       296       266       296       246       336       354       292       246       224       252 
dram[26]:       224       282       258       248       258       236       246       336       278       314       284       318       258       266       254       282 
dram[27]:       284       256       216       288       276       238       290       270       308       278       330       300       204       234       268       248 
dram[28]:       244       240       238       250       292       232       266       254       286       296       348       326       302       280       278       324 
dram[29]:       304       248       274       222       240       280       278       264       294       290       314       306       248       276       250       258 
dram[30]:       252       257       312       262       250       282       262       308       300       274       340       332       282       304       260       244 
dram[31]:       256       262       272       262       262       242       270       272       330       290       326       312       272       260       230       230 
total dram reads = 138063
bank skew: 360/202 = 1.78
chip skew: 4530/4042 = 1.12
number of total write accesses:
dram[0]:        41        40        33        44        40        42        41        45        33        40        46        32        50        41        33        39 
dram[1]:        46        42        40        47        42        49        42        48        47        41        50        39        36        39        30        39 
dram[2]:        33        38        50        41        38        32        29        53        34        36        38        50        48        33        52        53 
dram[3]:        46        39        38        44        49        40        39        37        39        46        40        43        34        36        36        39 
dram[4]:        34        30        33        27        36        31        42        22        41        28        40        29        39        31        29        37 
dram[5]:        54        40        56        41        62        36        42        32        48        40        55        38        41        56        54        31 
dram[6]:        28        38        41        28        46        39        36        28        38        53        37        48        30        47        33        41 
dram[7]:        41        33        36        36        40        39        31        37        39        39        40        36        35        34        39        35 
dram[8]:        44        43        42        39        41        39        45        34        39        36        58        31        40        36        47        41 
dram[9]:        44        48        47        38        45        29        41        44        40        53        38        35        45        51        34        38 
dram[10]:        46        44        34        40        42        36        30        42        42        38        33        38        37        30        40        56 
dram[11]:        29        44        34        35        39        48        31        29        31        43        42        36        42        39        34        31 
dram[12]:        39        45        49        29        46        43        38        37        41        32        44        33        48        44        47        37 
dram[13]:        39        27        39        35        41        24        38        31        45        36        49        35        47        39        39        33 
dram[14]:        41        36        37        35        38        49        48        29        35        42        43        29        44        35        45        41 
dram[15]:        38        29        54        33        48        39        47        37        42        28        29        36        36        50        37        45 
dram[16]:        37        44        46        34        45        37        47        32        38        46        49        50        42        41        42        41 
dram[17]:        33        48        27        41        46        35        37        49        38        43        39        58        43        49        30        60 
dram[18]:        35        47        30        34        34        46        32        30        34        41        33        35        33        40        35        32 
dram[19]:        37        27        35        31        46        34        39        36        38        44        43        34        53        43        36        27 
dram[20]:        29        37        36        47        39        39        36        29        43        28        31        46        38        43        43        38 
dram[21]:        32        52        40        44        37        51        47        41        33        47        38        38        45        30        43        42 
dram[22]:        39        35        43        44        54        49        45        47        47        43        40        27        38        46        39        44 
dram[23]:        40        45        33        47        39        29        35        36        41        41        37        31        62        42        48        37 
dram[24]:        36        39        40        33        28        37        25        42        26        46        36        39        37        41        42        46 
dram[25]:        36        30        42        36        38        42        41        40        47        32        43        45        44        45        36        45 
dram[26]:        35        49        40        41        41        44        41        50        31        54        25        39        31        39        39        48 
dram[27]:        48        43        30        46        42        31        51        34        35        37        55        31        33        41        46        46 
dram[28]:        36        38        37        51        47        35        41        36        34        38        64        40        51        38        43        57 
dram[29]:        49        44        40        26        37        45        41        43        39        34        50        36        48        38        33        48 
dram[30]:        40        49        52        48        43        43        45        45        46        44        53        45        42        54        45        40 
[...]
n_pre = 4386 
n_ref = 0 
n_req = 4936 
total_req = 4937 

Dual Bus Interface Util: 
issued_total_row = 8788 
issued_total_col = 4937 
Row_Bus_Util =  0.085401 
CoL_Bus_Util = 0.047977 
Either_Row_CoL_Bus_Util = 0.126741 
Issued_on_Two_Bus_Simul_Util = 0.006637 
issued_two_Eff = 0.052369 
queue_avg = 0.212433 


dram_util_bins: 0 0 0 0 0 0 0 0 0 0
dram_eff_bins: 0 0 0 0 0 0 0 0 0 0
mrqq: max=10 avg=0.212433
Memory Partition 28: 
Cache L2_bank_056:
MSHR contents

Cache L2_bank_057:
MSHR contents

In Dram Latency Queue (total = 0): 
DRAM[28]: 16 bks, busW=16 BL=2 CL=12, tRRD=3 tCCD=1, tRCD=12 tRAS=28 tRP=12 tRC=40
n_cmd=102903 n_nop=89400 n_act=4584 n_pre=4568 n_ref_event=0 n_req=5142 n_rd=4456 n_rd_L2_A=0 n_write=0 n_wr_bk=686 bw_util=0.04997
n_activity=68088 dram_eff=0.07552
bk0: 244a 95835i bk1: 240a 95964i bk2: 238a 95931i bk3: 250a 94983i bk4: 292a 93771i bk5: 232a 96013i bk6: 266a 94865i bk7: 254a 95255i bk8: 286a 95094i bk9: 296a 94551i bk10: 348a 92845i bk11: 326a 94114i bk12: 302a 93616i bk13: 280a 94577i bk14: 278a 94339i bk15: 324a 92486i 

------------------------------------------------------------------------

Row_Buffer_Locality = 0.108518
Row_Buffer_Locality_read = 0.125224
Row_Buffer_Locality_write = 0.000000
Bank_Level_Parallism = 2.559749
Bank_Level_Parallism_Col = 1.667987
Bank_Level_Parallism_Ready = 1.028588
write_to_read_ratio_blp_rw_average = 0.159702
GrpLevelPara = 1.489614 

BW Util details:
bwutil = 0.049969 
total_CMD = 102903 
util_bw = 5142 
Wasted_Col = 30627 
Wasted_Row = 17889 
Idle = 49245 

BW Util Bottlenecks: 
RCDc_limit = 41500 
RCDWRc_limit = 5895 
WTRc_limit = 5914 
RTWc_limit = 4304 
CCDLc_limit = 1285 
rwq = 0 
CCDLc_limit_alone = 948 
WTRc_limit_alone = 5688 
RTWc_limit_alone = 4193 

Commands details: 
total_CMD = 102903 
n_nop = 89400 
Read = 4456 
Write = 0 
L2_Alloc = 0 
L2_WB = 686 
n_act = 4584 
n_pre = 4568 
n_ref = 0 
n_req = 5142 
total_req = 5142 

Dual Bus Interface Util: 
issued_total_row = 9152 
issued_total_col = 5142 
Row_Bus_Util =  0.088938 
CoL_Bus_Util = 0.049969 
Either_Row_CoL_Bus_Util = 0.131221 
Issued_on_Two_Bus_Simul_Util = 0.007687 
issued_two_Eff = 0.058580 
queue_avg = 0.220946 


dram_util_bins: 0 0 0 0 0 0 0 0 0 0
dram_eff_bins: 0 0 0 0 0 0 0 0 0 0
mrqq: max=9 avg=0.220946
Memory Partition 29: 
Cache L2_bank_058:
MSHR contents

Cache L2_bank_059:
MSHR contents

In Dram Latency Queue (total = 0): 
DRAM[29]: 16 bks, busW=16 BL=2 CL=12, tRRD=3 tCCD=1, tRCD=12 tRAS=28 tRP=12 tRC=40
n_cmd=102903 n_nop=89715 n_act=4451 n_pre=4435 n_ref_event=0 n_req=4997 n_rd=4346 n_rd_L2_A=0 n_write=0 n_wr_bk=651 bw_util=0.04856
n_activity=66701 dram_eff=0.07492
bk0: 304a 93098i bk1: 248a 94901i bk2: 274a 94425i bk3: 222a 96625i bk4: 240a 95622i bk5: 280a 94429i bk6: 278a 95222i bk7: 264a 95353i bk8: 294a 94451i bk9: 290a 94588i bk10: 314a 94261i bk11: 306a 94860i bk12: 248a 95305i bk13: 276a 94215i bk14: 250a 95618i bk15: 258a 94735i 

------------------------------------------------------------------------

Row_Buffer_Locality = 0.109266
Row_Buffer_Locality_read = 0.125633
Row_Buffer_Locality_write = 0.000000
Bank_Level_Parallism = 2.533809
Bank_Level_Parallism_Col = 1.665095
Bank_Level_Parallism_Ready = 1.031619
write_to_read_ratio_blp_rw_average = 0.155332
GrpLevelPara = 1.473026 

BW Util details:
bwutil = 0.048560 
total_CMD = 102903 
util_bw = 4997 
Wasted_Col = 30147 
Wasted_Row = 17637 
Idle = 50122 

BW Util Bottlenecks: 
RCDc_limit = 40623 
RCDWRc_limit = 5575 
WTRc_limit = 5623 
RTWc_limit = 4704 
CCDLc_limit = 1346 
rwq = 0 
CCDLc_limit_alone = 955 
WTRc_limit_alone = 5368 
RTWc_limit_alone = 4568 

Commands details: 
total_CMD = 102903 
n_nop = 89715 
Read = 4346 
Write = 0 
L2_Alloc = 0 
L2_WB = 651 
n_act = 4451 
n_pre = 4435 
n_ref = 0 
n_req = 4997 
total_req = 4997 

Dual Bus Interface Util: 
issued_total_row = 8886 
issued_total_col = 4997 
Row_Bus_Util =  0.086353 
CoL_Bus_Util = 0.048560 
Either_Row_CoL_Bus_Util = 0.128160 
Issued_on_Two_Bus_Simul_Util = 0.006754 
issued_two_Eff = 0.052699 
queue_avg = 0.237010 


dram_util_bins: 0 0 0 0 0 0 0 0 0 0
dram_eff_bins: 0 0 0 0 0 0 0 0 0 0
mrqq: max=11 avg=0.23701
Memory Partition 30: 
Cache L2_bank_060:
MSHR contents

Cache L2_bank_061:
MSHR contents

In Dram Latency Queue (total = 0): 
DRAM[30]: 16 bks, busW=16 BL=2 CL=12, tRRD=3 tCCD=1, tRCD=12 tRAS=28 tRP=12 tRC=40
n_cmd=102903 n_nop=89053 n_act=4698 n_pre=4682 n_ref_event=0 n_req=5255 n_rd=4521 n_rd_L2_A=0 n_write=0 n_wr_bk=734 bw_util=0.05107
n_activity=70103 dram_eff=0.07496
bk0: 252a 95460i bk1: 257a 94767i bk2: 312a 92586i bk3: 262a 94626i bk4: 250a 95162i bk5: 282a 94606i bk6: 262a 94884i bk7: 308a 93256i bk8: 300a 94448i bk9: 274a 95263i bk10: 340a 93381i bk11: 332a 94120i bk12: 282a 94202i bk13: 304a 93184i bk14: 260a 95026i bk15: 244a 95412i 

------------------------------------------------------------------------

Row_Buffer_Locality = 0.105994
Row_Buffer_Locality_read = 0.122982
Row_Buffer_Locality_write = 0.001362
Bank_Level_Parallism = 2.535297
Bank_Level_Parallism_Col = 1.660442
Bank_Level_Parallism_Ready = 1.037107
write_to_read_ratio_blp_rw_average = 0.162985
GrpLevelPara = 1.479328 

BW Util details:
bwutil = 0.051068 
total_CMD = 102903 
util_bw = 5255 
Wasted_Col = 32236 
Wasted_Row = 18250 
Idle = 47162 

BW Util Bottlenecks: 
RCDc_limit = 42559 
RCDWRc_limit = 6233 
WTRc_limit = 5935 
RTWc_limit = 5766 
CCDLc_limit = 1302 
rwq = 0 
CCDLc_limit_alone = 908 
WTRc_limit_alone = 5689 
RTWc_limit_alone = 5618 

Commands details: 
total_CMD = 102903 
n_nop = 89053 
Read = 4521 
Write = 0 
L2_Alloc = 0 
L2_WB = 734 
n_act = 4698 
n_pre = 4682 
n_ref = 0 
n_req = 5255 
total_req = 5255 

Dual Bus Interface Util: 
issued_total_row = 9380 
issued_total_col = 5255 
Row_Bus_Util =  0.091154 
CoL_Bus_Util = 0.051068 
Either_Row_CoL_Bus_Util = 0.134593 
Issued_on_Two_Bus_Simul_Util = 0.007629 
issued_two_Eff = 0.056679 
queue_avg = 0.227603 


dram_util_bins: 0 0 0 0 0 0 0 0 0 0
dram_eff_bins: 0 0 0 0 0 0 0 0 0 0
mrqq: max=10 avg=0.227603
Memory Partition 31: 
Cache L2_bank_062:
MSHR contents

Cache L2_bank_063:
MSHR contents

In Dram Latency Queue (total = 0): 
DRAM[31]: 16 bks, busW=16 BL=2 CL=12, tRRD=3 tCCD=1, tRCD=12 tRAS=28 tRP=12 tRC=40
n_cmd=102903 n_nop=89737 n_act=4426 n_pre=4410 n_ref_event=0 n_req=5005 n_rd=4348 n_rd_L2_A=0 n_write=0 n_wr_bk=657 bw_util=0.04864
n_activity=68741 dram_eff=0.07281
bk0: 256a 94910i bk1: 262a 94789i bk2: 272a 94634i bk3: 262a 95206i bk4: 262a 95355i bk5: 242a 95390i bk6: 270a 95098i bk7: 272a 94550i bk8: 330a 93769i bk9: 290a 95004i bk10: 326a 93960i bk11: 312a 94915i bk12: 272a 94703i bk13: 260a 95192i bk14: 230a 95534i bk15: 230a 96264i 

------------------------------------------------------------------------

Row_Buffer_Locality = 0.115684
Row_Buffer_Locality_read = 0.132935
Row_Buffer_Locality_write = 0.001522
Bank_Level_Parallism = 2.434299
Bank_Level_Parallism_Col = 1.630073
Bank_Level_Parallism_Ready = 1.032567
write_to_read_ratio_blp_rw_average = 0.156121
GrpLevelPara = 1.460587 

BW Util details:
bwutil = 0.048638 
total_CMD = 102903 
util_bw = 5005 
Wasted_Col = 30726 
Wasted_Row = 18568 
Idle = 48604 

BW Util Bottlenecks: 
RCDc_limit = 40507 
RCDWRc_limit = 5605 
WTRc_limit = 5377 
RTWc_limit = 4600 
CCDLc_limit = 1217 
rwq = 0 
CCDLc_limit_alone = 852 
WTRc_limit_alone = 5159 
RTWc_limit_alone = 4453 

Commands details: 
total_CMD = 102903 
n_nop = 89737 
Read = 4348 
Write = 0 
L2_Alloc = 0 
L2_WB = 657 
n_act = 4426 
n_pre = 4410 
n_ref = 0 
n_req = 5005 
total_req = 5005 

Dual Bus Interface Util: 
issued_total_row = 8836 
issued_total_col = 5005 
Row_Bus_Util =  0.085867 
CoL_Bus_Util = 0.048638 
Either_Row_CoL_Bus_Util = 0.127946 
Issued_on_Two_Bus_Simul_Util = 0.006560 
issued_two_Eff = 0.051268 
queue_avg = 0.203590 


dram_util_bins: 0 0 0 0 0 0 0 0 0 0
dram_eff_bins: 0 0 0 0 0 0 0 0 0 0
mrqq: max=10 avg=0.20359

========= L2 cache stats =========
L2_cache_bank[0]: Access = 3454, Miss = 2156, Miss_rate = 0.624, Pending_hits = 0, Reservation_fails = 0
L2_cache_bank[1]: Access = 3477, Miss = 2172, Miss_rate = 0.625, Pending_hits = 0, Reservation_fails = 0
L2_cache_bank[2]: Access = 3504, Miss = 2200, Miss_rate = 0.628, Pending_hits = 0, Reservation_fails = 0
L2_cache_bank[3]: Access = 3546, Miss = 2206, Miss_rate = 0.622, Pending_hits = 0, Reservation_fails = 0
L2_cache_bank[4]: Access = 3465, Miss = 2156, Miss_rate = 0.622, Pending_hits = 0, Reservation_fails = 0
L2_cache_bank[5]: Access = 3474, Miss = 2154, Miss_rate = 0.620, Pending_hits = 0, Reservation_fails = 0
L2_cache_bank[6]: Access = 3439, Miss = 2166, Miss_rate = 0.630, Pending_hits = 0, Reservation_fails = 0
L2_cache_bank[7]: Access = 3456, Miss = 2160, Miss_rate = 0.625, Pending_hits = 2, Reservation_fails = 0
L2_cache_bank[8]: Access = 3381, Miss = 2094, Miss_rate = 0.619, Pending_hits = 0, Reservation_fails = 0
L2_cache_bank[9]: Access = 3195, Miss = 1948, Miss_rate = 0.610, Pending_hits = 0, Reservation_fails = 0
L2_cache_bank[10]: Access = 3756, Miss = 2378, Miss_rate = 0.633, Pending_hits = 0, Reservation_fails = 0
L2_cache_bank[11]: Access = 3444, Miss = 2152, Miss_rate = 0.625, Pending_hits = 0, Reservation_fails = 0
L2_cache_bank[12]: Access = 3363, Miss = 2078, Miss_rate = 0.618, Pending_hits = 0, Reservation_fails = 0
L2_cache_bank[13]: Access = 3468, Miss = 2160, Miss_rate = 0.623, Pending_hits = 0, Reservation_fails = 0
L2_cache_bank[14]: Access = 3411, Miss = 2108, Miss_rate = 0.618, Pending_hits = 0, Reservation_fails = 0
L2_cache_bank[15]: Access = 3357, Miss = 2084, Miss_rate = 0.621, Pending_hits = 0, Reservation_fails = 0
L2_cache_bank[16]: Access = 3570, Miss = 2232, Miss_rate = 0.625, Pending_hits = 0, Reservation_fails = 0
L2_cache_bank[17]: Access = 3390, Miss = 2120, Miss_rate = 0.625, Pending_hits = 0, Reservation_fails = 0
L2_cache_bank[18]: Access = 3498, Miss = 2190, Miss_rate = 0.626, Pending_hits = 0, Reservation_fails = 0
L2_cache_bank[19]: Access = 3501, Miss = 2180, Miss_rate = 0.623, Pending_hits = 0, Reservation_fails = 0
L2_cache_bank[20]: Access = 3409, Miss = 2110, Miss_rate = 0.619, Pending_hits = 0, Reservation_fails = 0
L2_cache_bank[21]: Access = 3477, Miss = 2176, Miss_rate = 0.626, Pending_hits = 0, Reservation_fails = 0
L2_cache_bank[22]: Access = 3333, Miss = 2058, Miss_rate = 0.617, Pending_hits = 0, Reservation_fails = 0
L2_cache_bank[23]: Access = 3393, Miss = 2104, Miss_rate = 0.620, Pending_hits = 0, Reservation_fails = 0
L2_cache_bank[24]: Access = 3570, Miss = 2238, Miss_rate = 0.627, Pending_hits = 0, Reservation_fails = 0
L2_cache_bank[25]: Access = 3390, Miss = 2102, Miss_rate = 0.620, Pending_hits = 0, Reservation_fails = 0
L2_cache_bank[26]: Access = 3522, Miss = 2218, Miss_rate = 0.630, Pending_hits = 0, Reservation_fails = 0
L2_cache_bank[27]: Access = 3256, Miss = 2022, Miss_rate = 0.621, Pending_hits = 0, Reservation_fails = 0
L2_cache_bank[28]: Access = 3504, Miss = 2178, Miss_rate = 0.622, Pending_hits = 0, Reservation_fails = 0
L2_cache_bank[29]: Access = 3375, Miss = 2098, Miss_rate = 0.622, Pending_hits = 0, Reservation_fails = 0
L2_cache_bank[30]: Access = 3502, Miss = 2190, Miss_rate = 0.625, Pending_hits = 0, Reservation_fails = 0
L2_cache_bank[31]: Access = 3381, Miss = 2098, Miss_rate = 0.621, Pending_hits = 0, Reservation_fails = 0
L2_cache_bank[32]: Access = 3534, Miss = 2224, Miss_rate = 0.629, Pending_hits = 0, Reservation_fails = 0
L2_cache_bank[33]: Access = 3481, Miss = 2183, Miss_rate = 0.627, Pending_hits = 0, Reservation_fails = 0
L2_cache_bank[34]: Access = 3360, Miss = 2080, Miss_rate = 0.619, Pending_hits = 0, Reservation_fails = 0
L2_cache_bank[35]: Access = 3664, Miss = 2306, Miss_rate = 0.629, Pending_hits = 0, Reservation_fails = 0
L2_cache_bank[36]: Access = 3279, Miss = 2030, Miss_rate = 0.619, Pending_hits = 0, Reservation_fails = 0
L2_cache_bank[37]: Access = 3408, Miss = 2124, Miss_rate = 0.623, Pending_hits = 2, Reservation_fails = 0
L2_cache_bank[38]: Access = 3484, Miss = 2192, Miss_rate = 0.629, Pending_hits = 0, Reservation_fails = 0
L2_cache_bank[39]: Access = 3334, Miss = 2068, Miss_rate = 0.620, Pending_hits = 0, Reservation_fails = 0
L2_cache_bank[40]: Access = 3384, Miss = 2098, Miss_rate = 0.620, Pending_hits = 0, Reservation_fails = 0
L2_cache_bank[41]: Access = 3408, Miss = 2134, Miss_rate = 0.626, Pending_hits = 0, Reservation_fails = 0
L2_cache_bank[42]: Access = 3444, Miss = 2146, Miss_rate = 0.623, Pending_hits = 0, Reservation_fails = 0
L2_cache_bank[43]: Access = 3525, Miss = 2218, Miss_rate = 0.629, Pending_hits = 0, Reservation_fails = 0
L2_cache_bank[44]: Access = 3534, Miss = 2234, Miss_rate = 0.632, Pending_hits = 0, Reservation_fails = 0
L2_cache_bank[45]: Access = 3519, Miss = 2204, Miss_rate = 0.626, Pending_hits = 0, Reservation_fails = 0
L2_cache_bank[46]: Access = 3514, Miss = 2180, Miss_rate = 0.620, Pending_hits = 0, Reservation_fails = 0
L2_cache_bank[47]: Access = 3418, Miss = 2137, Miss_rate = 0.625, Pending_hits = 0, Reservation_fails = 0
L2_cache_bank[48]: Access = 3310, Miss = 2040, Miss_rate = 0.616, Pending_hits = 0, Reservation_fails = 0
L2_cache_bank[49]: Access = 3453, Miss = 2158, Miss_rate = 0.625, Pending_hits = 0, Reservation_fails = 0
L2_cache_bank[50]: Access = 3489, Miss = 2186, Miss_rate = 0.627, Pending_hits = 0, Reservation_fails = 0
L2_cache_bank[51]: Access = 3433, Miss = 2134, Miss_rate = 0.622, Pending_hits = 0, Reservation_fails = 0
L2_cache_bank[52]: Access = 3318, Miss = 2060, Miss_rate = 0.621, Pending_hits = 0, Reservation_fails = 0
L2_cache_bank[53]: Access = 3594, Miss = 2282, Miss_rate = 0.635, Pending_hits = 0, Reservation_fails = 0
L2_cache_bank[54]: Access = 3499, Miss = 2176, Miss_rate = 0.622, Pending_hits = 0, Reservation_fails = 0
L2_cache_bank[55]: Access = 3405, Miss = 2112, Miss_rate = 0.620, Pending_hits = 0, Reservation_fails = 0
L2_cache_bank[56]: Access = 3561, Miss = 2254, Miss_rate = 0.633, Pending_hits = 0, Reservation_fails = 0
L2_cache_bank[57]: Access = 3498, Miss = 2202, Miss_rate = 0.630, Pending_hits = 0, Reservation_fails = 0
L2_cache_bank[58]: Access = 3502, Miss = 2202, Miss_rate = 0.629, Pending_hits = 0, Reservation_fails = 0
L2_cache_bank[59]: Access = 3436, Miss = 2144, Miss_rate = 0.624, Pending_hits = 2, Reservation_fails = 0
L2_cache_bank[60]: Access = 3603, Miss = 2258, Miss_rate = 0.627, Pending_hits = 0, Reservation_fails = 0
L2_cache_bank[61]: Access = 3595, Miss = 2263, Miss_rate = 0.629, Pending_hits = 0, Reservation_fails = 0
L2_cache_bank[62]: Access = 3546, Miss = 2218, Miss_rate = 0.625, Pending_hits = 0, Reservation_fails = 0
L2_cache_bank[63]: Access = 3409, Miss = 2130, Miss_rate = 0.625, Pending_hits = 0, Reservation_fails = 0
L2_total_cache_accesses = 221202
L2_total_cache_misses = 138063
L2_total_cache_miss_rate = 0.6241
L2_total_cache_pending_hits = 6
L2_total_cache_reservation_fails = 0
L2_total_cache_breakdown:
	L2_cache_stats_breakdown[GLOBAL_ACC_R][HIT] = 17597
	L2_cache_stats_breakdown[GLOBAL_ACC_R][HIT_RESERVED] = 6
	L2_cache_stats_breakdown[GLOBAL_ACC_R][MISS] = 67061
	L2_cache_stats_breakdown[GLOBAL_ACC_R][RESERVATION_FAIL] = 0
	L2_cache_stats_breakdown[GLOBAL_ACC_R][SECTOR_MISS] = 71002
	L2_cache_stats_breakdown[LOCAL_ACC_R][HIT] = 0
	L2_cache_stats_breakdown[LOCAL_ACC_R][HIT_RESERVED] = 0
	L2_cache_stats_breakdown[LOCAL_ACC_R][MISS] = 0
	L2_cache_stats_breakdown[LOCAL_ACC_R][RESERVATION_FAIL] = 0
	L2_cache_stats_breakdown[LOCAL_ACC_R][SECTOR_MISS] = 0
	L2_cache_stats_breakdown[CONST_ACC_R][HIT] = 0
	L2_cache_stats_breakdown[CONST_ACC_R][HIT_RESERVED] = 0
	L2_cache_stats_breakdown[CONST_ACC_R][MISS] = 0
	L2_cache_stats_breakdown[CONST_ACC_R][RESERVATION_FAIL] = 0
	L2_cache_stats_breakdown[CONST_ACC_R][SECTOR_MISS] = 0
	L2_cache_stats_breakdown[TEXTURE_ACC_R][HIT] = 0
	L2_cache_stats_breakdown[TEXTURE_ACC_R][HIT_RESERVED] = 0
	L2_cache_stats_breakdown[TEXTURE_ACC_R][MISS] = 0
	L2_cache_stats_breakdown[TEXTURE_ACC_R][RESERVATION_FAIL] = 0
	L2_cache_stats_breakdown[TEXTURE_ACC_R][SECTOR_MISS] = 0
	L2_cache_stats_breakdown[GLOBAL_ACC_W][HIT] = 65536
	L2_cache_stats_breakdown[GLOBAL_ACC_W][HIT_RESERVED] = 0
	L2_cache_stats_breakdown[GLOBAL_ACC_W][MISS] = 0
	L2_cache_stats_breakdown[GLOBAL_ACC_W][RESERVATION_FAIL] = 0
	L2_cache_stats_breakdown[GLOBAL_ACC_W][SECTOR_MISS] = 0
	L2_cache_stats_breakdown[LOCAL_ACC_W][HIT] = 0
	L2_cache_stats_breakdown[LOCAL_ACC_W][HIT_RESERVED] = 0
	L2_cache_stats_breakdown[LOCAL_ACC_W][MISS] = 0
	L2_cache_stats_breakdown[LOCAL_ACC_W][RESERVATION_FAIL] = 0
	L2_cache_stats_breakdown[LOCAL_ACC_W][SECTOR_MISS] = 0
	L2_cache_stats_breakdown[L1_WRBK_ACC][HIT] = 0
	L2_cache_stats_breakdown[L1_WRBK_ACC][HIT_RESERVED] = 0
	L2_cache_stats_breakdown[L1_WRBK_ACC][MISS] = 0
	L2_cache_stats_breakdown[L1_WRBK_ACC][RESERVATION_FAIL] = 0
	L2_cache_stats_breakdown[L1_WRBK_ACC][SECTOR_MISS] = 0
	L2_cache_stats_breakdown[L2_WRBK_ACC][HIT] = 0
	L2_cache_stats_breakdown[L2_WRBK_ACC][HIT_RESERVED] = 0
	L2_cache_stats_breakdown[L2_WRBK_ACC][MISS] = 0
	L2_cache_stats_breakdown[L2_WRBK_ACC][RESERVATION_FAIL] = 0
	L2_cache_stats_breakdown[L2_WRBK_ACC][SECTOR_MISS] = 0
	L2_cache_stats_breakdown[INST_ACC_R][HIT] = 0
	L2_cache_stats_breakdown[INST_ACC_R][HIT_RESERVED] = 0
	L2_cache_stats_breakdown[INST_ACC_R][MISS] = 0
	L2_cache_stats_breakdown[INST_ACC_R][RESERVATION_FAIL] = 0
	L2_cache_stats_breakdown[INST_ACC_R][SECTOR_MISS] = 0
	L2_cache_stats_breakdown[L1_WR_ALLOC_R][HIT] = 0
	L2_cache_stats_breakdown[L1_WR_ALLOC_R][HIT_RESERVED] = 0
	L2_cache_stats_breakdown[L1_WR_ALLOC_R][MISS] = 0
	L2_cache_stats_breakdown[L1_WR_ALLOC_R][RESERVATION_FAIL] = 0
	L2_cache_stats_breakdown[L1_WR_ALLOC_R][SECTOR_MISS] = 0
	L2_cache_stats_breakdown[L2_WR_ALLOC_R][HIT] = 0
	L2_cache_stats_breakdown[L2_WR_ALLOC_R][HIT_RESERVED] = 0
	L2_cache_stats_breakdown[L2_WR_ALLOC_R][MISS] = 0
	L2_cache_stats_breakdown[L2_WR_ALLOC_R][RESERVATION_FAIL] = 0
	L2_cache_stats_breakdown[L2_WR_ALLOC_R][SECTOR_MISS] = 0
	L2_cache_stats_breakdown[GLOBAL_ACC_R][TOTAL_ACCESS] = 155666
	L2_cache_stats_breakdown[GLOBAL_ACC_W][TOTAL_ACCESS] = 65536
L2_total_cache_reservation_fail_breakdown:
L2_cache_data_port_util = 0.009
L2_cache_fill_port_util = 0.016

icnt_total_pkts_mem_to_simt=221202
icnt_total_pkts_simt_to_mem=221202
LD_mem_lat_dist  0 0 0 0 0 0 0 0 0 0 0 0 0 0 0 0 0 0 0 0 0 0 0 0 0 0 0
ST_mem_lat_dist  0 0 0 0 0 0 0 0 0 0 0 0 0 0 0 0 0 0 0 0 0 0 0 0 0 0 0
----------------------------Interconnect-DETAILS--------------------------------
Req_Network_injected_packets_num = 221202
Req_Network_cycles = 137043
Req_Network_injected_packets_per_cycle =       1.6141 
Req_Network_conflicts_per_cycle =       0.0224
Req_Network_conflicts_per_cycle_util =       0.0298
Req_Bank_Level_Parallism =       2.1462
Req_Network_in_buffer_full_per_cycle =       0.0000
Req_Network_in_buffer_avg_util =       0.0005
Req_Network_out_buffer_full_per_cycle =       0.0000
Req_Network_out_buffer_avg_util =       0.0252

Reply_Network_injected_packets_num = 221202
Reply_Network_cycles = 137043
Reply_Network_injected_packets_per_cycle =        1.6141
Reply_Network_conflicts_per_cycle =        0.5338
Reply_Network_conflicts_per_cycle_util =       0.7321
Reply_Bank_Level_Parallism =       2.2138
Reply_Network_in_buffer_full_per_cycle =       0.0000
Reply_Network_in_buffer_avg_util =       0.0090
Reply_Network_out_buffer_full_per_cycle =       0.0000
Reply_Network_out_buffer_avg_util =       0.0202
----------------------------END-of-Interconnect-DETAILS-------------------------


gpgpu_simulation_time = 0 days, 0 hrs, 5 min, 38 sec (338 sec)
gpgpu_simulation_rate = 46975 (inst/sec)
gpgpu_simulation_rate = 405 (cycle/sec)
gpgpu_silicon_slowdown = 2795061x
GPGPU-Sim: detected inactive GPU simulation thread

total_us: 1 laps, 277101208 us


gen_hists: 1 laps, 277101208.000000 us/lap, 34637651.000000 us/cta

GPGPU-Sim: synchronize waiting for inactive GPU simulation
GPGPU-Sim API: Stream Manager State
GPGPU-Sim: detected inactive GPU simulation thread
GPGPU-Sim: *** exit detected ***
