

        *** GPGPU-Sim Simulator Version 4.0.0  [build gpgpu-sim_git-commit-ffe0a1a00e984ecce9bf36e17ab94c4de0de8108_modified_0.0] ***


GPGPU-Sim PTX: simulation mode 0 (can change with PTX_SIM_MODE_FUNC environment variable:
               1=functional simulation only, 0=detailed performance simulator)
GPGPU-Sim PTX: overriding embedded ptx with ptx file (PTX_SIM_USE_PTX_FILE is set)
GPGPU-Sim: Configuration options:

-save_embedded_ptx                      0 # saves ptx files embedded in binary as <n>.ptx
-keep                                   0 # keep intermediate files created by GPGPU-Sim when interfacing with external programs
-gpgpu_ptx_save_converted_ptxplus                    0 # Saved converted ptxplus to a file
-gpgpu_occupancy_sm_number                   70 # The SM number to pass to ptxas when getting register usage for computing GPU occupancy. This parameter is required in the config.
-ptx_opcode_latency_int      4,13,4,5,145,21 # Opcode latencies for integers <ADD,MAX,MUL,MAD,DIV,SHFL>Default 1,1,19,25,145,32
-ptx_opcode_latency_fp          4,13,4,5,39 # Opcode latencies for single precision floating points <ADD,MAX,MUL,MAD,DIV>Default 1,1,1,1,30
-ptx_opcode_latency_dp         8,19,8,8,330 # Opcode latencies for double precision floating points <ADD,MAX,MUL,MAD,DIV>Default 8,8,8,8,335
-ptx_opcode_latency_sfu                  100 # Opcode latencies for SFU instructionsDefault 8
-ptx_opcode_latency_tesnor                   64 # Opcode latencies for Tensor instructionsDefault 64
-ptx_opcode_initiation_int          2,2,2,2,8,4 # Opcode initiation intervals for integers <ADD,MAX,MUL,MAD,DIV,SHFL>Default 1,1,4,4,32,4
-ptx_opcode_initiation_fp            2,2,2,2,4 # Opcode initiation intervals for single precision floating points <ADD,MAX,MUL,MAD,DIV>Default 1,1,1,1,5
-ptx_opcode_initiation_dp          4,4,4,4,130 # Opcode initiation intervals for double precision floating points <ADD,MAX,MUL,MAD,DIV>Default 8,8,8,8,130
-ptx_opcode_initiation_sfu                    8 # Opcode initiation intervals for sfu instructionsDefault 8
-ptx_opcode_initiation_tensor                   64 # Opcode initiation intervals for tensor instructionsDefault 64
-cdp_latency         7200,8000,100,12000,1600 # CDP API latency <cudaStreamCreateWithFlags, cudaGetParameterBufferV2_init_perWarp, cudaGetParameterBufferV2_perKernel, cudaLaunchDeviceV2_init_perWarp, cudaLaunchDevicV2_perKernel>Default 7200,8000,100,12000,1600
-network_mode                           2 # Interconnection network mode
-inter_config_file                   mesh # Interconnection network config file
-icnt_in_buffer_limit                  512 # in_buffer_limit
-icnt_out_buffer_limit                  512 # out_buffer_limit
-icnt_subnets                           2 # subnets
-icnt_arbiter_algo                      1 # arbiter_algo
-icnt_verbose                           0 # inct_verbose
-icnt_grant_cycles                      1 # grant_cycles
-gpgpu_ptx_use_cuobjdump                    1 # Use cuobjdump to extract ptx and sass from binaries
-gpgpu_experimental_lib_support                    0 # Try to extract code from cuda libraries [Broken because of unknown cudaGetExportTable]
-checkpoint_option                      0 #  checkpointing flag (0 = no checkpoint)
-checkpoint_kernel                      1 #  checkpointing during execution of which kernel (1- 1st kernel)
-checkpoint_CTA                         0 #  checkpointing after # of CTA (< less than total CTA)
-resume_option                          0 #  resume flag (0 = no resume)
-resume_kernel                          0 #  Resume from which kernel (1= 1st kernel)
-resume_CTA                             0 #  resume from which CTA 
-checkpoint_CTA_t                       0 #  resume from which CTA 
-checkpoint_insn_Y                      0 #  resume from which CTA 
-gpgpu_ptx_convert_to_ptxplus                    0 # Convert SASS (native ISA) to ptxplus and run ptxplus
-gpgpu_ptx_force_max_capability                   70 # Force maximum compute capability
-gpgpu_ptx_inst_debug_to_file                    0 # Dump executed instructions' debug information to file
-gpgpu_ptx_inst_debug_file       inst_debug.txt # Executed instructions' debug output file
-gpgpu_ptx_inst_debug_thread_uid                    1 # Thread UID for executed instructions' debug output
-gpgpu_n_mem_for_l2wb_pcommit                   32 # number of memory modules (e.g. memory controllers) in gpu
-gpgpu_n_sub_partition_per_mchannel_for_l2wb_pcommit                    2 # number of memory subpartition in each memory module
-gpgpu_dl2_bsize_for_l2wb_pcommit                  128 # default 128 bytes
-gpgpu_simd_model                       1 # 1 = post-dominator
-gpgpu_shader_core_pipeline              2048:32 # shader core pipeline config, i.e., {<nthread>:<warpsize>}
-gpgpu_tex_cache:l1  N:4:128:256,L:R:m:N:L,T:512:8,128:2 # per-shader L1 texture cache  (READ-ONLY) config  {<nsets>:<bsize>:<assoc>,<rep>:<wr>:<alloc>:<wr_alloc>,<mshr>:<N>:<merge>,<mq>:<rf>}
-gpgpu_const_cache:l1 N:128:64:8,L:R:f:N:L,S:2:64,4 # per-shader L1 constant memory cache  (READ-ONLY) config  {<nsets>:<bsize>:<assoc>,<rep>:<wr>:<alloc>:<wr_alloc>,<mshr>:<N>:<merge>,<mq>} 
-gpgpu_cache:il1     N:64:128:16,L:R:f:N:L,S:2:48,4 # shader L1 instruction cache config  {<nsets>:<bsize>:<assoc>,<rep>:<wr>:<alloc>:<wr_alloc>,<mshr>:<N>:<merge>,<mq>} 
-gpgpu_cache:dl1     S:1:128:256,L:L:s:N:L,A:256:8,16:0,32 # per-shader L1 data cache config  {<nsets>:<bsize>:<assoc>,<rep>:<wr>:<alloc>:<wr_alloc>,<mshr>:<N>:<merge>,<mq> | none}
-gpgpu_l1_banks                         4 # The number of L1 cache banks
-gpgpu_l1_banks_byte_interleaving                   32 # l1 banks byte interleaving granularity
-gpgpu_l1_banks_hashing_function                    0 # l1 banks hashing function
-gpgpu_l1_latency                      20 # L1 Hit Latency
-gpgpu_smem_latency                    20 # smem Latency
-gpgpu_cache:dl1PrefL1                 none # per-shader L1 data cache config  {<nsets>:<bsize>:<assoc>,<rep>:<wr>:<alloc>:<wr_alloc>,<mshr>:<N>:<merge>,<mq> | none}
-gpgpu_cache:dl1PrefShared                 none # per-shader L1 data cache config  {<nsets>:<bsize>:<assoc>,<rep>:<wr>:<alloc>:<wr_alloc>,<mshr>:<N>:<merge>,<mq> | none}
-gpgpu_gmem_skip_L1D                    0 # global memory access skip L1D cache (implements -Xptxas -dlcm=cg, default=no skip)
-gpgpu_perfect_mem                      0 # enable perfect memory mode (no cache miss)
-n_regfile_gating_group                    4 # group of lanes that should be read/written together)
-gpgpu_clock_gated_reg_file                    0 # enable clock gated reg file for power calculations
-gpgpu_clock_gated_lanes                    0 # enable clock gated lanes for power calculations
-gpgpu_shader_registers                65536 # Number of registers per shader core. Limits number of concurrent CTAs. (default 8192)
-gpgpu_registers_per_block                65536 # Maximum number of registers per CTA. (default 8192)
-gpgpu_ignore_resources_limitation                    0 # gpgpu_ignore_resources_limitation (default 0)
-gpgpu_shader_cta                      32 # Maximum number of concurrent CTAs in shader (default 8)
-gpgpu_num_cta_barriers                   16 # Maximum number of named barriers per CTA (default 16)
-gpgpu_n_clusters                      80 # number of processing clusters
-gpgpu_n_cores_per_cluster                    1 # number of simd cores per cluster
-gpgpu_n_cluster_ejection_buffer_size                   32 # number of packets in ejection buffer
-gpgpu_n_ldst_response_buffer_size                    2 # number of response packets in ld/st unit ejection buffer
-gpgpu_shmem_per_block                65536 # Size of shared memory per thread block or CTA (default 48kB)
-gpgpu_shmem_size                   98304 # Size of shared memory per shader core (default 16kB)
-gpgpu_adaptive_cache_config            536870913 # adaptive_cache_config
-gpgpu_shmem_sizeDefault                98304 # Size of shared memory per shader core (default 16kB)
-gpgpu_shmem_size_PrefL1                16384 # Size of shared memory per shader core (default 16kB)
-gpgpu_shmem_size_PrefShared                16384 # Size of shared memory per shader core (default 16kB)
-gpgpu_shmem_num_banks                   32 # Number of banks in the shared memory in each shader core (default 16)
-gpgpu_shmem_limited_broadcast                    0 # Limit shared memory to do one broadcast per cycle (default on)
-gpgpu_shmem_warp_parts                    1 # Number of portions a warp is divided into for shared memory bank conflict check 
-gpgpu_mem_unit_ports                    1 # The number of memory transactions allowed per core cycle
-gpgpu_shmem_warp_parts                    1 # Number of portions a warp is divided into for shared memory bank conflict check 
-gpgpu_warpdistro_shader                   -1 # Specify which shader core to collect the warp size distribution from
-gpgpu_warp_issue_shader                    0 # Specify which shader core to collect the warp issue distribution from
-gpgpu_local_mem_map                    1 # Mapping from local memory space address to simulated GPU physical address space (default = enabled)
-gpgpu_num_reg_banks                   16 # Number of register banks (default = 8)
-gpgpu_reg_bank_use_warp_id                    0 # Use warp ID in mapping registers to banks (default = off)
-gpgpu_sub_core_model                    1 # Sub Core Volta/Pascal model (default = off)
-gpgpu_enable_specialized_operand_collector                    0 # enable_specialized_operand_collector
-gpgpu_operand_collector_num_units_sp                    4 # number of collector units (default = 4)
-gpgpu_operand_collector_num_units_dp                    0 # number of collector units (default = 0)
-gpgpu_operand_collector_num_units_sfu                    4 # number of collector units (default = 4)
-gpgpu_operand_collector_num_units_int                    0 # number of collector units (default = 0)
-gpgpu_operand_collector_num_units_tensor_core                    4 # number of collector units (default = 4)
-gpgpu_operand_collector_num_units_mem                    2 # number of collector units (default = 2)
-gpgpu_operand_collector_num_units_gen                    8 # number of collector units (default = 0)
-gpgpu_operand_collector_num_in_ports_sp                    1 # number of collector unit in ports (default = 1)
-gpgpu_operand_collector_num_in_ports_dp                    0 # number of collector unit in ports (default = 0)
-gpgpu_operand_collector_num_in_ports_sfu                    1 # number of collector unit in ports (default = 1)
-gpgpu_operand_collector_num_in_ports_int                    0 # number of collector unit in ports (default = 0)
-gpgpu_operand_collector_num_in_ports_tensor_core                    1 # number of collector unit in ports (default = 1)
-gpgpu_operand_collector_num_in_ports_mem                    1 # number of collector unit in ports (default = 1)
-gpgpu_operand_collector_num_in_ports_gen                    8 # number of collector unit in ports (default = 0)
-gpgpu_operand_collector_num_out_ports_sp                    1 # number of collector unit in ports (default = 1)
-gpgpu_operand_collector_num_out_ports_dp                    0 # number of collector unit in ports (default = 0)
-gpgpu_operand_collector_num_out_ports_sfu                    1 # number of collector unit in ports (default = 1)
-gpgpu_operand_collector_num_out_ports_int                    0 # number of collector unit in ports (default = 0)
-gpgpu_operand_collector_num_out_ports_tensor_core                    1 # number of collector unit in ports (default = 1)
-gpgpu_operand_collector_num_out_ports_mem                    1 # number of collector unit in ports (default = 1)
-gpgpu_operand_collector_num_out_ports_gen                    8 # number of collector unit in ports (default = 0)
-gpgpu_coalesce_arch                   60 # Coalescing arch (GT200 = 13, Fermi = 20)
-gpgpu_num_sched_per_core                    4 # Number of warp schedulers per core
-gpgpu_max_insn_issue_per_warp                    1 # Max number of instructions that can be issued per warp in one cycle by scheduler (either 1 or 2)
-gpgpu_dual_issue_diff_exec_units                    1 # should dual issue use two different execution unit resources (Default = 1)
-gpgpu_simt_core_sim_order                    1 # Select the simulation order of cores in a cluster (0=Fix, 1=Round-Robin)
-gpgpu_pipeline_widths 4,4,4,4,4,4,4,4,4,4,8,4,4 # Pipeline widths ID_OC_SP,ID_OC_DP,ID_OC_INT,ID_OC_SFU,ID_OC_MEM,OC_EX_SP,OC_EX_DP,OC_EX_INT,OC_EX_SFU,OC_EX_MEM,EX_WB,ID_OC_TENSOR_CORE,OC_EX_TENSOR_CORE
-gpgpu_tensor_core_avail                    1 # Tensor Core Available (default=0)
-gpgpu_num_sp_units                     4 # Number of SP units (default=1)
-gpgpu_num_dp_units                     4 # Number of DP units (default=0)
-gpgpu_num_int_units                    4 # Number of INT units (default=0)
-gpgpu_num_sfu_units                    4 # Number of SF units (default=1)
-gpgpu_num_tensor_core_units                    4 # Number of tensor_core units (default=1)
-gpgpu_num_mem_units                    1 # Number if ldst units (default=1) WARNING: not hooked up to anything
-gpgpu_scheduler                      gto # Scheduler configuration: < lrr | gto | two_level_active > If two_level_active:<num_active_warps>:<inner_prioritization>:<outer_prioritization>For complete list of prioritization values see shader.h enum scheduler_prioritization_typeDefault: gto
-gpgpu_concurrent_kernel_sm                    0 # Support concurrent kernels on a SM (default = disabled)
-gpgpu_perfect_inst_const_cache                    1 # perfect inst and const cache mode, so all inst and const hits in the cache(default = disabled)
-gpgpu_inst_fetch_throughput                    4 # the number of fetched intruction per warp each cycle
-gpgpu_reg_file_port_throughput                    2 # the number ports of the register file
-specialized_unit_1         0,4,4,4,4,BRA # specialized unit config {<enabled>,<num_units>:<latency>:<initiation>,<ID_OC_SPEC>:<OC_EX_SPEC>,<NAME>}
-specialized_unit_2         0,4,4,4,4,BRA # specialized unit config {<enabled>,<num_units>:<latency>:<initiation>,<ID_OC_SPEC>:<OC_EX_SPEC>,<NAME>}
-specialized_unit_3         0,4,4,4,4,BRA # specialized unit config {<enabled>,<num_units>:<latency>:<initiation>,<ID_OC_SPEC>:<OC_EX_SPEC>,<NAME>}
-specialized_unit_4         0,4,4,4,4,BRA # specialized unit config {<enabled>,<num_units>:<latency>:<initiation>,<ID_OC_SPEC>:<OC_EX_SPEC>,<NAME>}
-specialized_unit_5         0,4,4,4,4,BRA # specialized unit config {<enabled>,<num_units>:<latency>:<initiation>,<ID_OC_SPEC>:<OC_EX_SPEC>,<NAME>}
-specialized_unit_6         0,4,4,4,4,BRA # specialized unit config {<enabled>,<num_units>:<latency>:<initiation>,<ID_OC_SPEC>:<OC_EX_SPEC>,<NAME>}
-specialized_unit_7         0,4,4,4,4,BRA # specialized unit config {<enabled>,<num_units>:<latency>:<initiation>,<ID_OC_SPEC>:<OC_EX_SPEC>,<NAME>}
-specialized_unit_8         0,4,4,4,4,BRA # specialized unit config {<enabled>,<num_units>:<latency>:<initiation>,<ID_OC_SPEC>:<OC_EX_SPEC>,<NAME>}
-gpgpu_perf_sim_memcpy                    1 # Fill the L2 cache on memcpy
-gpgpu_simple_dram_model                    0 # simple_dram_model with fixed latency and BW
-gpgpu_dram_scheduler                    1 # 0 = fifo, 1 = FR-FCFS (defaul)
-gpgpu_dram_partition_queues          64:64:64:64 # i2$:$2d:d2$:$2i
-l2_ideal                               0 # Use a ideal L2 cache that always hit
-gpgpu_cache:dl2     S:32:128:24,L:B:m:L:P,A:192:4,32:0,32 # unified banked L2 data cache config  {<nsets>:<bsize>:<assoc>,<rep>:<wr>:<alloc>:<wr_alloc>,<mshr>:<N>:<merge>,<mq>}
-gpgpu_cache:dl2_texture_only                    0 # L2 cache used for texture only
-gpgpu_n_mem                           32 # number of memory modules (e.g. memory controllers) in gpu
-gpgpu_n_sub_partition_per_mchannel                    2 # number of memory subpartition in each memory module
-gpgpu_n_mem_per_ctrlr                    1 # number of memory chips per memory controller
-gpgpu_memlatency_stat                   14 # track and display latency statistics 0x2 enables MC, 0x4 enables queue logs
-gpgpu_frfcfs_dram_sched_queue_size                   64 # 0 = unlimited (default); # entries per chip
-gpgpu_dram_return_queue_size                  192 # 0 = unlimited (default); # entries per chip
-gpgpu_dram_buswidth                   16 # default = 4 bytes (8 bytes per cycle at DDR)
-gpgpu_dram_burst_length                    2 # Burst length of each DRAM request (default = 4 data bus cycle)
-dram_data_command_freq_ratio                    2 # Frequency ratio between DRAM data bus and command bus (default = 2 times, i.e. DDR)
-gpgpu_dram_timing_opt nbk=16:CCD=1:RRD=3:RCD=12:RAS=28:RP=12:RC=40: CL=12:WL=2:CDLR=3:WR=10:nbkgrp=4:CCDL=2:RTPL=3 # DRAM timing parameters = {nbk:tCCD:tRRD:tRCD:tRAS:tRP:tRC:CL:WL:tCDLR:tWR:nbkgrp:tCCDL:tRTPL}
-gpgpu_l2_rop_latency                  160 # ROP queue latency (default 85)
-dram_latency                         200 # DRAM latency (default 30)
-dram_write_latency                   600 # DRAM write latency (default 100)
-dram_dual_bus_interface                    1 # dual_bus_interface (default = 0) 
-dram_bnk_indexing_policy                    0 # dram_bnk_indexing_policy (0 = normal indexing, 1 = Xoring with the higher bits) (Default = 0)
-dram_bnkgrp_indexing_policy                    1 # dram_bnkgrp_indexing_policy (0 = take higher bits, 1 = take lower bits) (Default = 0)
-dram_seperate_write_queue_enable                    0 # Seperate_Write_Queue_Enable
-dram_write_queue_size             32:28:16 # Write_Queue_Size
-dram_elimnate_rw_turnaround                    0 # elimnate_rw_turnaround i.e set tWTR and tRTW = 0
-icnt_flit_size                        40 # icnt_flit_size
-gpgpu_mem_addr_mapping dramid@8;00000000.00000000.00000000.00000000.0000RRRR.RRRRRRRR.RBBBCCCB.CCCSSSSS # mapping memory address to dram model {dramid@<start bit>;<memory address map>}
-gpgpu_mem_addr_test                    0 # run sweep test to check address mapping for aliased address
-gpgpu_mem_address_mask                    1 # 0 = old addressing mask, 1 = new addressing mask, 2 = new add. mask + flipped bank sel and chip sel bits
-gpgpu_memory_partition_indexing                    0 # 0 = no indexing, 1 = bitwise xoring, 2 = IPoly, 3 = custom indexing
-gpuwattch_xml_file         gpuwattch.xml # GPUWattch XML file
-power_simulation_enabled                    0 # Turn on power simulator (1=On, 0=Off)
-power_per_cycle_dump                    0 # Dump detailed power output each cycle
-power_trace_enabled                    0 # produce a file for the power trace (1=On, 0=Off)
-power_trace_zlevel                     6 # Compression level of the power trace output log (0=no comp, 9=highest)
-steady_power_levels_enabled                    0 # produce a file for the steady power levels (1=On, 0=Off)
-steady_state_definition                  8:4 # allowed deviation:number of samples
-gpgpu_max_cycle                        0 # terminates gpu simulation early (0 = no limit)
-gpgpu_max_insn                         0 # terminates gpu simulation early (0 = no limit)
-gpgpu_max_cta                          0 # terminates gpu simulation early (0 = no limit)
-gpgpu_max_completed_cta                 2700 # terminates gpu simulation early (0 = no limit)
-gpgpu_runtime_stat                   500 # display runtime statistics such as dram utilization {<freq>:<flag>}
-liveness_message_freq                    1 # Minimum number of seconds between simulation liveness messages (0 = always print)
-gpgpu_compute_capability_major                    7 # Major compute capability version number
-gpgpu_compute_capability_minor                    0 # Minor compute capability version number
-gpgpu_flush_l1_cache                    1 # Flush L1 cache at the end of each kernel call
-gpgpu_flush_l2_cache                    0 # Flush L2 cache at the end of each kernel call
-gpgpu_deadlock_detect                    1 # Stop the simulation at deadlock (1=on (default), 0=off)
-gpgpu_ptx_instruction_classification                    0 # if enabled will classify ptx instruction types per kernel (Max 255 kernels now)
-gpgpu_ptx_sim_mode                     0 # Select between Performance (default) or Functional simulation (1)
-gpgpu_clock_domains 1132.0:1132.0:1132.0:850.0 # Clock Domain Frequencies in MhZ {<Core Clock>:<ICNT Clock>:<L2 Clock>:<DRAM Clock>}
-gpgpu_max_concurrent_kernel                    8 # maximum kernels that can run concurrently on GPU
-gpgpu_cflog_interval                    0 # Interval between each snapshot in control flow logger
-visualizer_enabled               48e293453df1fbca85f95b4ef3d81d0c  /home/pli11/Videos/parboil_benchmark/parboil/benchmarks/mri-gridding/build/nvm_ssort_default/mri-gridding
Extracting PTX file and ptxas options    1: mri-gridding.1.sm_70.ptx -arch=sm_70
Extracting PTX file and ptxas options    2: mri-gridding.2.sm_70.ptx -arch=sm_70
      0 # Turn on visualizer output (1=On, 0=Off)
-visualizer_outputfile                 NULL # Specifies the output log file for visualizer
-visualizer_zlevel                      6 # Compression level of the visualizer output log (0=no comp, 9=highest)
-gpgpu_stack_size_limit                 1024 # GPU thread stack size
-gpgpu_heap_size_limit              8388608 # GPU malloc heap size 
-gpgpu_runtime_sync_depth_limit                    2 # GPU device runtime synchronize depth
-gpgpu_runtime_pending_launch_count_limit                 2048 # GPU device runtime pending launch count
-trace_enabled                          0 # Turn on traces
-trace_components                    none # comma seperated list of traces to enable. Complete list found in trace_streams.tup. Default none
-trace_sampling_core                    0 # The core which is printed using CORE_DPRINTF. Default 0
-trace_sampling_memory_partition                   -1 # The memory partition which is printed using MEMPART_DPRINTF. Default -1 (i.e. all)
-enable_ptx_file_line_stats                    1 # Turn on PTX source line statistic profiling. (1 = On)
-ptx_line_stats_filename gpgpu_inst_stats.txt # Output file for PTX source line statistics.
-gpgpu_kernel_launch_latency                 5000 # Kernel launch latency in cycles. Default: 0
-gpgpu_cdp_enabled                      0 # Turn on CDP
-gpgpu_TB_launch_latency                    0 # thread block launch latency in cycles. Default: 0
DRAM Timing Options:
nbk                                    16 # number of banks
CCD                                     1 # column to column delay
RRD                                     3 # minimal delay between activation of rows in different banks
RCD                                    12 # row to column delay
RAS                                    28 # time needed to activate row
RP                                     12 # time needed to precharge (deactivate) row
RC                                     40 # row cycle time
CDLR                                    3 # switching from write to read (changes tWTR)
WR                                     10 # last data-in to row precharge
CL                                     12 # CAS latency
WL                                      2 # Write latency
nbkgrp                                  4 # number of bank groups
CCDL                                    2 # column to column delay between accesses to different bank groups
RTPL                                    3 # read to precharge delay between accesses to different bank groups
Total number of memory sub partition = 64
addr_dec_mask[CHIP]  = 0000000000001f00 	high:13 low:8
addr_dec_mask[BK]    = 00000000000e2000 	high:20 low:13
addr_dec_mask[ROW]   = 00000001fff00000 	high:33 low:20
addr_dec_mask[COL]   = 000000000001c0ff 	high:17 low:0
addr_dec_mask[BURST] = 000000000000001f 	high:5 low:0
sub_partition_id_mask = 0000000000002000
GPGPU-Sim uArch: clock freqs: 1132000000.000000:1132000000.000000:1132000000.000000:850000000.000000
GPGPU-Sim uArch: clock periods: 0.00000000088339222615:0.00000000088339222615:0.00000000088339222615:0.00000000117647058824
*** Initializing Memory Statistics ***
GPGPU-Sim uArch: performance model initialization complete.
self exe links to: /home/pli11/Videos/parboil_benchmark/parboil/benchmarks/mri-gridding/build/nvm_ssort_default/mri-gridding
self exe links to: /home/pli11/Videos/parboil_benchmark/parboil/benchmarks/mri-gridding/build/nvm_ssort_default/mri-gridding
10.1
GPGPU-Sim PTX: __cudaRegisterFatBinary, fat_cubin_handle = 1, filename=default
self exe links to: /home/pli11/Videos/parboil_benchmark/parboil/benchmarks/mri-gridding/build/nvm_ssort_default/mri-gridding
Running md5sum using "md5sum /home/pli11/Videos/parboil_benchmark/parboil/benchmarks/mri-gridding/build/nvm_ssort_default/mri-gridding "
self exe links to: /home/pli11/Videos/parboil_benchmark/parboil/benchmarks/mri-gridding/build/nvm_ssort_default/mri-gridding
Extracting specific PTX file named mri-gridding.1.sm_70.ptx 
Extracting specific PTX file named mri-gridding.2.sm_70.ptx 
EExtracting PTX file and ptxas options    3: mri-gridding.3.sm_70.ptx -arch=sm_70
Extracting PTX file and ptxas options    4: mri-gridding.4.sm_70.ptx -arch=sm_70
xtracting specific PTX file named mri-gridding.3.sm_70.ptx 
Extracting specific PTX file named mri-gridding.4.sm_70.ptx 
self exe links to: /home/pli11/Videos/parboil_benchmark/parboil/benchmarks/mri-gridding/build/nvm_ssort_default/mri-gridding
self exe links to: /home/pli11/Videos/parboil_benchmark/parboil/benchmarks/mri-gridding/build/nvm_ssort_default/mri-gridding
10.1
GPGPU-Sim PTX: __cudaRegisterFatBinary, fat_cubin_handle = 2, filename=default
GPGPU-Sim PTX: __cudaRegisterFunction _Z17gridding_GPU_nvmbP20ReconstructionSamplePjP6float2Pff : hostFun 0x0x404c94, fat_cubin_handle = 2
GPGPU-Sim PTX: Parsing mri-gridding.1.sm_70.ptx
GPGPU-Sim PTX: finished parsing EMBEDDED .ptx file mri-gridding.1.sm_70.ptx
GPGPU-Sim PTX: Parsing mri-gridding.2.sm_70.ptx
GPGPU-Sim PTX: allocating constant region for "cutoff2_c" from 0x100 to 0x104 (global memory space) 1
GPGPU-Sim PTX: allocating constant region for "cutoff_c" from 0x104 to 0x108 (global memory space) 2
GPGPU-Sim PTX: allocating constant region for "gridSize_c" from 0x180 to 0x18c (global memory space) 3
GPGPU-Sim PTX: allocating constant region for "size_xy_c" from 0x18c to 0x190 (global memory space) 4
GPGPU-Sim PTX: allocating constant region for "_1overCutoff2_c" from 0x190 to 0x194 (global memory space) 5
GPGPU-Sim PTX: allocating global region for "NVM_log" from 0x200 to 0x4000200 (global memory space)
GPGPU-Sim PTX: allocating global region for "NVM_flag" from 0x4000200 to 0x4400200 (global memory space)
GPGPU-Sim PTX: instruction assembly for function '_Z14binning_kerneljP20ReconstructionSamplePjS1_S1_jj'...   done.
GPGPU-Sim PTX: instruction assembly for function '_Z19binning_kernel_nvmbjP20ReconstructionSamplePjS1_S1_jj'...   done.
GPGPU-Sim PTX: instruction assembly for function '_Z19binning_kernel_nvmdjP20ReconstructionSamplePjS1_S1_jj'...   done.
GPGPU-Sim PTX: instruction assembly for function '_Z14reorder_kerneliPjP20ReconstructionSampleS1_'...   done.
GPGPU-Sim PTX: instruction assembly for function '_Z19reorder_kernel_nvmaiPjP20ReconstructionSampleS1_'...   done.
GPGPU-Sim PTX: instruction assembly for function '_Z19reorder_kernel_nvmbiPjP20ReconstructionSampleS1_'...   done.
GPGPU-Sim PTX: instruction assembly for function '_Z19reorder_kernel_nvmdiPjP20ReconstructionSampleS1_'...   done.
GPGPU-Sim PTX: instruction assembly for function '_Z19reorder_kernel_nvmgiPjP20ReconstructionSampleS1_'...   done.
GPGPU-Sim PTX: instruction assembly for function '_Z19reorder_kernel_nvmiiPjP20ReconstructionSampleS1_'...   done.
GPGPU-Sim PTX: allocating shared region for "_ZZ12gridding_GPUP20ReconstructionSamplePjP6float2PffE9sharedBin" from 0x0 to 0x600 (shared memory space)
GPGPU-Sim PTX: instruction assembly for function '_Z12gridding_GPUP20ReconstructionSamplePjP6float2Pff'...   done.
GPGPU-Sim PTX: allocating stack frame region for .local "__local_depot10" from 0x0 to 0x8
GPGPU-Sim PTX: allocating shared region for "_ZZ17gridding_GPU_nvmaP20ReconstructionSamplePjP6float2PffE9sharedBin" from 0x0 to 0x600 (shared memory space)
GPGPU-Sim PTX: instruction assembly for function '_Z17gridding_GPU_nvmaP20ReconstructionSamplePjP6float2Pff'...   done.
GPGPU-Sim PTX: allocating stack frame region for .local "__local_depot11" from 0x0 to 0x8
GPGPU-Sim PTX: allocating shared region for "_ZZ17gridding_GPU_nvmbP20ReconstructionSamplePjP6float2PffE9sharedBin" from 0x0 to 0x600 (shared memory space)
GPGPU-Sim PTX: instruction assembly for function '_Z17gridding_GPU_nvmbP20ReconstructionSamplePjP6float2Pff'...   done.
GPGPU-Sim PTX: finished parsing EMBEDDED .ptx file mri-gridding.2.sm_70.ptx
GPGPU-Sim PTX: Parsing mri-gridding.3.sm_70.ptx
GPGPU-Sim PTX: allocating shared region for "s_data" from 0x0 to 0x0 (shared memory space)
GPGPU-Sim PTX: allocating shared region for "_ZZ14scan_L1_kerneljPjS_E6s_data" from 0x0 to 0x1110 (shared memory space)
GPGPU-Sim PTX: instruction assembly for function '_Z14scan_L1_kerneljPjS_'...   done.
GPGPU-Sim PTX: instruction assembly for function '_Z18scan_inter1_kernelPjj'...   done.
GPGPU-Sim PTX: instruction assembly for function '_Z18scan_inter2_kernelPjj'...   done.
GPGPU-Sim PTX: allocating shared region for "_ZZ10uniformAddjPjS_E3uni" from 0x0 to 0x4 (shared memory space)
GPGPU-Sim PTX: instruction assembly for function '_Z10uniformAddjPjS_'...   done.
GPGPU-Sim PTX: finished parsing EMBEDDED .ptx file mri-gridding.3.sm_70.ptx
GPGPU-Sim PTX: Parsing mri-gridding.4.sm_70.ptx
GPGPU-Sim PTX: allocating global region for "NVM_log1" from 0x4400200 to 0x8400200 (global memory space)
GPGPU-Sim PTX: allocating global region for "NVM_log2" from 0x8400200 to 0xc400200 (global memory space)
GPGPU-Sim PTX: allocating global region for "NVM_log3" from 0xc400200 to 0x10400200 (global memory space)
GPGPU-Sim PTX: Warning NVM_flag was declared previous at mri-gridding.2.sm_70.ptx:20 skipping new declaration
GPGPU-Sim PTX: allocating shared region for "_ZZ9splitSortiiPjS_S_E5flags" from 0x0 to 0x1144 (shared memory space)
GPGPU-Sim PTX: allocating shared region for "_ZZ9splitSortiiPjS_S_E7histo_s" from 0x1180 to 0x11c0 (shared memory space)
GPGPU-Sim PTX: instruction assembly for function '_Z9splitSortiiPjS_S_'...   done.
GPGPU-Sim PTX: allocating shared region for "_ZZ14splitSort_nvmoiiPjS_S_E5flags" from 0x0 to 0x1144 (shared memory space)
GPGPU-Sim PTX: allocating shared region for "_ZZ14splitSort_nvmoiiPjS_S_E7histo_s" from 0x1180 to 0x11c0 (shared memory space)
GPGPU-Sim PTX: instruction assembly for function '_Z14splitSort_nvmoiiPjS_S_'...   done.
GPGPU-Sim PTX: allocating shared region for "_ZZ14splitSort_nvmqiiPjS_S_E5flags" from 0x0 to 0x1144 (shared memory space)
GPGPU-Sim PTX: allocating shared region for "_ZZ14splitSort_nvmqiiPjS_S_E7histo_s" from 0x1180 to 0x11c0 (shared memory space)
GPGPU-Sim PTX: instruction assembly for function '_Z14splitSort_nvmqiiPjS_S_'...   done.
GPGPU-Sim PTX: allocating shared region for "_ZZ14splitSort_nvmuiiPjS_S_E5flags" from 0x0 to 0x1144 (shared memory space)
GPGPU-Sim PTX: allocating shared region for "_ZZ14splitSort_nvmuiiPjS_S_E7histo_s" from 0x1180 to 0x11c0 (shared memory space)
GPGPU-Sim PTX: instruction assembly for function '_Z14splitSort_nvmuiiPjS_S_'...   done.
GPGPU-Sim PTX: allocating shared region for "_ZZ14splitSort_nvmwiiPjS_S_E5flags" from 0x0 to 0x1144 (shared memory space)
GPGPU-Sim PTX: allocating shared region for "_ZZ14splitSort_nvmwiiPjS_S_E7histo_s" from 0x1180 to 0x11c0 (shared memory space)
GPGPU-Sim PTX: instruction assembly for function '_Z14splitSort_nvmwiiPjS_S_'...   done.
GPGPU-Sim PTX: allocating shared region for "_ZZ14splitSort_nvm1iiPjS_S_E5flags" from 0x0 to 0x1144 (shared memory space)
GPGPU-Sim PTX: allocating shared region for "_ZZ14splitSort_nvm1iiPjS_S_E7histo_s" from 0x1180 to 0x11c0 (shared memory space)
GPGPU-Sim PTX: instruction assembly for function '_Z14splitSort_nvm1iiPjS_S_'...   done.
GPGPU-Sim PTX: allocating shared region for "_ZZ14splitSort_nvm2iiPjS_S_E5flags" from 0x0 to 0x1144 (shared memory space)
GPGPU-Sim PTX: allocating shared region for "_ZZ14splitSort_nvm2iiPjS_S_E7histo_s" from 0x1180 to 0x11c0 (shared memory space)
GPGPU-Sim PTX: instruction assembly for function '_Z14splitSort_nvm2iiPjS_S_'...   done.
GPGPU-Sim PTX: allocating shared region for "_ZZ14splitSort_nvmbiiPjS_S_E5flags" from 0x0 to 0x1144 (shared memory space)
GPGPU-Sim PTX: allocating shared region for "_ZZ14splitSort_nvmbiiPjS_S_E7histo_s" from 0x1180 to 0x11c0 (shared memory space)
GPGPU-Sim PTX: instruction assembly for function '_Z14splitSort_nvmbiiPjS_S_'...   done.
GPGPU-Sim PTX: allocating shared region for "_ZZ14splitSort_nvmdiiPjS_S_E5flags" from 0x0 to 0x1144 (shared memory space)
GPGPU-Sim PTX: allocating shared region for "_ZZ14splitSort_nvmdiiPjS_S_E7histo_s" from 0x1180 to 0x11c0 (shared memory space)
GPGPU-Sim PTX: instruction assembly for function '_Z14splitSort_nvmdiiPjS_S_'...   done.
GPGPU-Sim PTX: allocating shared region for "_ZZ19splitRearrange_nvmbiiPjS_S_S_S_E7histo_s" from 0x0 to 0x40 (shared memory space)
GPGPU-Sim PTX: allocating shared region for "_ZZ19splitRearrange_nvmbiiPjS_S_S_S_E7array_s" from 0x80 to 0x1080 (shared memory space)
GPGPU-Sim PTX: instruction assembly for function '_Z19splitRearrange_nvmbiiPjS_S_S_S_'...   done.
GPGPU-Sim PTX: allocating shared region for "_ZZ19splitRearrange_nvmdiiPjS_S_S_S_E7histo_s" from 0x0 to 0x40 (shared memory space)
GPGPU-Sim PTX: allocating shared region for "_ZZ19splitRearrange_nvmdiiPjS_S_S_S_E7array_s" from 0x80 to 0x1080 (shared memory space)
GPGPU-Sim PTX: instruction assembly for function '_Z19splitRearrange_nvmdiiPjS_S_S_S_'...   done.
GPGPU-Sim PTX: allocating shared region for "_ZZ19splitRearrange_nvmoiiPjS_S_S_S_E7histo_s" from 0x0 to 0x40 (shared memory space)
GPGPU-Sim PTX: allocating shared region for "_ZZ19splitRearrange_nvmoiiPjS_S_S_S_E7array_s" from 0x80 to 0x1080 (shared memory space)
GPGPU-Sim PTX: instruction assembly for function '_Z19splitRearrange_nvmoiiPjS_S_S_S_'...   done.
GPGPU-Sim PTX: allocating shared region for "_ZZ19splitRearrange_nvmqiiPjS_S_S_S_E7histo_s" from 0x0 to 0x40 (shared memory space)
GPGPU-Sim PTX: allocating shared region for "_ZZ19splitRearrange_nvmqiiPjS_S_S_S_E7array_s" from 0x80 to 0x1080 (shared memory space)
GPGPU-Sim PTX: instruction assembly for function '_Z19splitRearrange_nvmqiiPjS_S_S_S_'...   done.
GPGPU-Sim PTX: allocating shared region for "_ZZ19splitRearrange_nvmuiiPjS_S_S_S_E7histo_s" from 0x0 to 0x40 (shared memory space)
GPGPU-Sim PTX: allocating shared region for "_ZZ19splitRearrange_nvmuiiPjS_S_S_S_E7array_s" from 0x80 to 0x1080 (shared memory space)
GPGPU-Sim PTX: instruction assembly for function '_Z19splitRearrange_nvmuiiPjS_S_S_S_'...   done.
GPGPU-Sim PTX: allocating shared region for "_ZZ19splitRearrange_nvmwiiPjS_S_S_S_E7histo_s" from 0x0 to 0x40 (shared memory space)
GPGPU-Sim PTX: allocating shared region for "_ZZ19splitRearrange_nvmwiiPjS_S_S_S_E7array_s" from 0x80 to 0x1080 (shared memory space)
GPGPU-Sim PTX: instruction assembly for function '_Z19splitRearrange_nvmwiiPjS_S_S_S_'...   done.
GPGPU-Sim PTX: allocating shared region for "_ZZ19splitRearrange_nvm1iiPjS_S_S_S_E7histo_s" from 0x0 to 0x40 (shared memory space)
GPGPU-Sim PTX: allocating shared region for "_ZZ19splitRearrange_nvm1iiPjS_S_S_S_E7array_s" from 0x80 to 0x1080 (shared memory space)
GPGPU-Sim PTX: instruction assembly for function '_Z19splitRearrange_nvm1iiPjS_S_S_S_'...   done.
GPGPU-Sim PTX: allocating shared region for "_ZZ19splitRearrange_nvm2iiPjS_S_S_S_E7histo_s" from 0x0 to 0x40 (shared memory space)
GPGPU-Sim PTX: allocating shared region for "_ZZ19splitRearrange_nvm2iiPjS_S_S_S_E7array_s" from 0x80 to 0x1080 (shared memory space)
GPGPU-Sim PTX: instruction assembly for function '_Z19splitRearrange_nvm2iiPjS_S_S_S_'...   done.
GPGPU-Sim PTX: allocating shared region for "_ZZ14splitSort_nvmgiiPjS_S_E5flags" from 0x0 to 0x1144 (shared memory space)
GPGPU-Sim PTX: allocating shared region for "_ZZ14splitSort_nvmgiiPjS_S_E7histo_s" from 0x1180 to 0x11c0 (shared memory space)
GPGPU-Sim PTX: instruction assembly for function '_Z14splitSort_nvmgiiPjS_S_'...   done.
GPGPU-Sim PTX: allocating shared region for "_ZZ14splitSort_nvm3iiPjS_S_E5flags" from 0x0 to 0x1144 (shared memory space)
GPGPU-Sim PTX: allocating shared region for "_ZZ14splitSort_nvm3iiPjS_S_E7histo_s" from 0x1180 to 0x11c0 (shared memory space)
GPGPU-Sim PTX: instruction assembly for function '_Z14splitSort_nvm3iiPjS_S_'...   done.
GPGPU-Sim PTX: allocating shared region for "_ZZ14splitSort_nvm4iiPjS_S_E5flags" from 0x0 to 0x1144 (shared memory space)
GPGPU-Sim PTX: allocating shared region for "_ZZ14splitSort_nvm4iiPjS_S_E7histo_s" from 0x1180 to 0x11c0 (shared memory space)
GPGPU-Sim PTX: instruction assembly for function '_Z14splitSort_nvm4iiPjS_S_'...   done.
GPGPU-Sim PTX: allocating shared region for "_ZZ14splitSort_nvmiiiPjS_S_E5flags" from 0x0 to 0x1144 (shared memory space)
GPGPU-Sim PTX: allocating shared region for "_ZZ14splitSort_nvmiiiPjS_S_E7histo_s" from 0x1180 to 0x11c0 (shared memory space)
GPGPU-Sim PTX: instruction assembly for function '_Z14splitSort_nvmiiiPjS_S_'...   done.
GPGPU-Sim PTX: allocating shared region for "_ZZ14splitSort_nvm5iiPjS_S_E5flags" from 0x0 to 0x1144 (shared memory space)
GPGPU-Sim PTX: allocating shared region for "_ZZ14splitSort_nvm5iiPjS_S_E7histo_s" from 0x1180 to 0x11c0 (shared memory space)
GPGPU-Sim PTX: instruction assembly for function '_Z14splitSort_nvm5iiPjS_S_'...   done.
GPGPU-Sim PTX: allocating shared region for "_ZZ14splitSort_nvm6iiPjS_S_E5flags" from 0x0 to 0x1144 (shared memory space)
GPGPU-Sim PTX: allocating shared region for "_ZZ14splitSort_nvm6iiPjS_S_E7histo_s" from 0x1180 to 0x11c0 (shared memory space)
GPGPU-Sim PTX: instruction assembly for function '_Z14splitSort_nvm6iiPjS_S_'...   done.
GPGPU-Sim PTX: allocating shared region for "_ZZ19splitRearrange_nvmgiiPjS_S_S_S_E7histo_s" from 0x0 to 0x40 (shared memory space)
GPGPU-Sim PTX: allocating shared region for "_ZZ19splitRearrange_nvmgiiPjS_S_S_S_E7array_s" from 0x80 to 0x1080 (shared memory space)
GPGPU-Sim PTX: instruction assembly for function '_Z19splitRearrange_nvmgiiPjS_S_S_S_'...   done.
GPGPU-Sim PTX: allocating shared region for "_ZZ19splitRearrange_nvm3iiPjS_S_S_S_E7histo_s" from 0x0 to 0x40 (shared memory space)
GPGPU-Sim PTX: allocating shared region for "_ZZ19splitRearrange_nvm3iiPjS_S_S_S_E7array_s" from 0x80 to 0x1080 (shared memory space)
GPGPU-Sim PTX: instruction assembly for function '_Z19splitRearrange_nvm3iiPjS_S_S_S_'...   done.
GPGPU-Sim PTX: allocating shared region for "_ZZ19splitRearrange_nvm4iiPjS_S_S_S_E7histo_s" from 0x0 to 0x40 (shared memory space)
GPGPU-Sim PTX: allocating shared region for "_ZZ19splitRearrange_nvm4iiPjS_S_S_S_E7array_s" from 0x80 to 0x1080 (shared memory space)
GPGPU-Sim PTX: instruction assembly for function '_Z19splitRearrange_nvm4iiPjS_S_S_S_'...   done.
GPGPU-Sim PTX: allocating shared region for "_ZZ19splitRearrange_nvmiiiPjS_S_S_S_E7histo_s" from 0x0 to 0x40 (shared memory space)
GPGPU-Sim PTX: allocating shared region for "_ZZ19splitRearrange_nvmiiiPjS_S_S_S_E7array_s" from 0x80 to 0x1080 (shared memory space)
GPGPU-Sim PTX: instruction assembly for function '_Z19splitRearrange_nvmiiiPjS_S_S_S_'...   done.
GPGPU-Sim PTX: allocating shared region for "_ZZ19splitRearrange_nvm6iiPjS_S_S_S_E7histo_s" from 0x0 to 0x40 (shared memory space)
GPGPU-Sim PTX: allocating shared region for "_ZZ19splitRearrange_nvm6iiPjS_S_S_S_E7array_s" from 0x80 to 0x1080 (shared memory space)
GPGPU-Sim PTX: instruction assembly for function '_Z19splitRearrange_nvm6iiPjS_S_S_S_'...   done.
GPGPU-Sim PTX: allocating shared region for "_ZZ19splitRearrange_nvm5iiPjS_S_S_S_E7histo_s" from 0x0 to 0x40 (shared memory space)
GPGPU-Sim PTX: allocating shared region for "_ZZ19splitRearrange_nvm5iiPjS_S_S_S_E7array_s" from 0x80 to 0x1080 (shared memory space)
GPGPU-Sim PTX: instruction assembly for function '_Z19splitRearrange_nvm5iiPjS_S_S_S_'...   done.
GPGPU-Sim PTX: allocating shared region for "_ZZ14splitRearrangeiiPjS_S_S_S_E7histo_s" from 0x0 to 0x40 (shared memory space)
GPGPU-Sim PTX: allocating shared region for "_ZZ14splitRearrangeiiPjS_S_S_S_E7array_s" from 0x80 to 0x1080 (shared memory space)
GPGPU-Sim PTX: instruction assembly for function '_Z14splitRearrangeiiPjS_S_S_S_'...   done.
GPGPU-Sim PTX: finished parsing EMBEDDED .ptx file mri-gridding.4.sm_70.ptx
GPGPU-Sim PTX: loading globals with explicit initializers... 
GPGPU-Sim PTX: finished loading globals (0 bytes total).
GPGPU-Sim PTX: loading constants with explicit initializers...  done.
GPGPU-Sim PTX: Loading PTXInfo from mri-gridding.1.sm_70.ptx
GPGPU-Sim PTX: Loading PTXInfo from mri-gridding.2.sm_70.ptx
GPGPU-Sim PTX: Binary info : gmem=71303168, cmem=28
GPGPU-Sim PTX: Kernel '_Z17gridding_GPU_nvmbP20ReconstructionSamplePjP6float2Pff' : regs=40, lmem=0, smem=1536, cmem=388
GPGPU-Sim PTX: Kernel '_Z17gridding_GPU_nvmaP20ReconstructionSamplePjP6float2Pff' : regs=40, lmem=0, smem=1536, cmem=388
GPGPU-Sim PTX: Kernel '_Z12gridding_GPUP20ReconstructionSamplePjP6float2Pff' : regs=39, lmem=0, smem=1536, cmem=388
GPGPU-Sim PTX: Kernel '_Z19reorder_kernel_nvmiiPjP20ReconstructionSampleS1_' : regs=24, lmem=0, smem=0, cmem=384
GPGPU-Sim PTX: Kernel '_Z19reorder_kernel_nvmgiPjP20ReconstructionSampleS1_' : regs=24, lmem=0, smem=0, cmem=384
GPGPU-Sim PTX: Kernel '_Z19reorder_kernel_nvmdiPjP20ReconstructionSampleS1_' : regs=22, lmem=0, smem=0, cmem=384
GPGPU-Sim PTX: Kernel '_Z19reorder_kernel_nvmbiPjP20ReconstructionSampleS1_' : regs=22, lmem=0, smem=0, cmem=384
GPGPU-Sim PTX: Kernel '_Z19reorder_kernel_nvmaiPjP20ReconstructionSampleS1_' : regs=22, lmem=0, smem=0, cmem=384
GPGPU-Sim PTX: Kernel '_Z14reorder_kerneliPjP20ReconstructionSampleS1_' : regs=22, lmem=0, smem=0, cmem=384
GPGPU-Sim PTX: Kernel '_Z19binning_kernel_nvmdjP20ReconstructionSamplePjS1_S1_jj' : regs=16, lmem=0, smem=0, cmem=400
GPGPU-Sim PTX: Kernel '_Z19binning_kernel_nvmbjP20ReconstructionSamplePjS1_S1_jj' : regs=16, lmem=0, smem=0, cmem=400
GPGPU-Sim PTX: Kernel '_Z14binning_kerneljP20ReconstructionSamplePjS1_S1_jj' : regs=16, lmem=0, smem=0, cmem=400
GPGPU-Sim PTX: Loading PTXInfo from mri-gridding.3.sm_70.ptx
GPGPU-Sim PTX: Kernel '_Z10uniformAddjPjS_' : regs=8, lmem=0, smem=16, cmem=376
GPGPU-Sim PTX: Kernel '_Z18scan_inter2_kernelPjj' : regs=19, lmem=0, smem=0, cmem=364
GPGPU-Sim PTX: Kernel '_Z18scan_inter1_kernelPjj' : regs=20, lmem=0, smem=0, cmem=364
GPGPU-Sim PTX: Kernel '_Z14scan_L1_kerneljPjS_' : regs=22, lmem=0, smem=4368, cmem=376
GPGPU-Sim PTX: Loading PTXInfo from mri-gridding.4.sm_70.ptx
GPGPU-Sim PTX: Kernel '_Z14splitRearrangeiiPjS_S_S_S_' : regs=28, lmem=0, smem=4160, cmem=400
GPGPU-Sim PTX: Kernel '_Z19splitRearrange_nvm5iiPjS_S_S_S_' : regs=28, lmem=0, smem=4160, cmem=400
GPGPU-Sim PTX: Kernel '_Z19splitRearrange_nvm6iiPjS_S_S_S_' : regs=28, lmem=0, smem=4160, cmem=400
GPGPU-Sim PTX: Kernel '_Z19splitRearrange_nvmiiiPjS_S_S_S_' : regs=30, lmem=0, smem=4160, cmem=400
GPGPU-Sim PTX: Kernel '_Z19splitRearrange_nvm4iiPjS_S_S_S_' : regs=32, lmem=0, smem=4160, cmem=400
GPGPU-Sim PTX: Kernel '_Z19splitRearrange_nvm3iiPjS_S_S_S_' : regs=32, lmem=0, smem=4160, cmem=400
GPGPU-Sim PTX: Kernel '_Z19splitRearrange_nvmgiiPjS_S_S_S_' : regs=32, lmem=0, smem=4160, cmem=400
GPGPU-Sim PTX: Kernel '_Z14splitSort_nvm6iiPjS_S_' : regs=48, lmem=0, smem=4484, cmem=384
GPGPU-Sim PTX: Kernel '_Z14splitSort_nvm5iiPjS_S_' : regs=48, lmem=0, smem=4484, cmem=384
GPGPU-Sim PTX: Kernel '_Z14splitSort_nvmiiiPjS_S_' : regs=48, lmem=0, smem=4484, cmem=384
GPGPU-Sim PTX: Kernel '_Z14splitSort_nvm4iiPjS_S_' : regs=48, lmem=0, smem=4484, cmem=384
GPGPU-Sim PTX: Kernel '_Z14splitSort_nvm3iiPjS_S_' : regs=48, lmem=0, smem=4484, cmem=384
GPGPU-Sim PTX: Kernel '_Z14splitSort_nvmgiiPjS_S_' : regs=43, lmem=0, smem=4484, cmem=384
GPGPU-Sim PTX: Kernel '_Z19splitRearrange_nvm2iiPjS_S_S_S_' : regs=30, lmem=0, smem=4160, cmem=400
GPGPU-Sim PTX: Kernel '_Z19splitRearrange_nvm1iiPjS_S_S_S_' : regs=30, lmem=0, smem=4160, cmem=400
GPGPU-Sim PTX: Kernel '_Z19splitRearrange_nvmwiiPjS_S_S_S_' : regs=28, lmem=0, smem=4160, cmem=400
GPGPU-Sim PTX: Kernel '_Z19splitRearrange_nvmuiiPjS_S_S_S_' : regs=26, lmem=0, smem=4160, cmem=400
GPGPU-Sim PTX: Kernel '_Z19splitRearrange_nvmqiiPjS_S_S_S_' : regs=28, lmem=0, smem=4160, cmem=400
GPGPU-Sim PTX: Kernel '_Z19splitRearrange_nvmoiiPjS_S_S_S_' : regs=26, lmem=0, smem=4160, cmem=400
GPGPU-Sim PTX: Kernel '_Z19splitRearrange_nvmdiiPjS_S_S_S_' : regs=28, lmem=0, smem=4160, cmem=400
GPGPU-Sim PTX: Kernel '_Z19splitRearrange_nvmbiiPjS_S_S_S_' : regs=26, lmem=0, smem=4160, cmem=400
GPGPU-Sim PTX: Kernel '_Z14splitSort_nvmdiiPjS_S_' : regs=43, lmem=0, smem=4484, cmem=384
GPGPU-Sim PTX: Kernel '_Z14splitSort_nvmbiiPjS_S_' : regs=43, lmem=0, smem=4484, cmem=384
GPGPU-Sim PTX: Kernel '_Z14splitSort_nvm2iiPjS_S_' : regs=43, lmem=0, smem=4484, cmem=384
GPGPU-Sim PTX: Kernel '_Z14splitSort_nvm1iiPjS_S_' : regs=43, lmem=0, smem=4484, cmem=384
GPGPU-Sim PTX: Kernel '_Z14splitSort_nvmwiiPjS_S_' : regs=43, lmem=0, smem=4484, cmem=384
GPGPU-Sim PTX: Kernel '_Z14splitSort_nvmuiiPjS_S_' : regs=43, lmem=0, smem=4484, cmem=384
GPGPU-Sim PTX: Kernel '_Z14splitSort_nvmqiiPjS_S_' : regs=43, lmem=0, smem=4484, cmem=384
GPGPU-Sim PTX: Kernel '_Z14splitSort_nvmoiiPjS_S_' : regs=43, lmem=0, smem=4484, cmem=384
GPGPU-Sim PTX: Kernel '_Z9splitSortiiPjS_S_' : regs=43, lmem=0, smem=4484, cmem=384
GPGPU-Sim PTX: __cudaRegisterFunction _Z17gridding_GPU_nvmaP20ReconstructionSamplePjP6float2Pff : hostFun 0x0x404aee, fat_cubin_handle = 2
GPGPU-Sim PTX: __cudaRegisterFunction _Z12gridding_GPUP20ReconstructionSamplePjP6float2Pff : hostFun 0x0x404948, fat_cubin_handle = 2
GPGPU-Sim PTX: __cudaRegisterFunction _Z19reorder_kernel_nvmiiPjP20ReconstructionSampleS1_ : hostFun 0x0x4047b2, fat_cubin_handle = 2
GPGPU-Sim PTX: __cudaRegisterFunction _Z19reorder_kernel_nvmgiPjP20ReconstructionSampleS1_ : hostFun 0x0x40463d, fat_cubin_handle = 2
GPGPU-Sim PTX: __cudaRegisterFunction _Z19reorder_kernel_nvmdiPjP20ReconstructionSampleS1_ : hostFun 0x0x4044c8, fat_cubin_handle = 2
GPGPU-Sim PTX: __cudaRegisterFunction _Z19reorder_kernel_nvmbiPjP20ReconstructionSampleS1_ : hostFun 0x0x404353, fat_cubin_handle = 2
GPGPU-Sim PTX: __cudaRegisterFunction _Z19reorder_kernel_nvmaiPjP20ReconstructionSampleS1_ : hostFun 0x0x4041de, fat_cubin_handle = 2
GPGPU-Sim PTX: __cudaRegisterFunction _Z14reorder_kerneliPjP20ReconstructionSampleS1_ : hostFun 0x0x404069, fat_cubin_handle = 2
GPGPU-Sim PTX: __cudaRegisterFunction _Z19binning_kernel_nvmdjP20ReconstructionSamplePjS1_S1_jj : hostFun 0x0x403ede, fat_cubin_handle = 2
GPGPU-Sim PTX: __cudaRegisterFunction _Z19binning_kernel_nvmbjP20ReconstructionSamplePjS1_S1_jj : hostFun 0x0x403ce5, fat_cubin_handle = 2
GPGPU-Sim PTX: __cudaRegisterFunction _Z14binning_kerneljP20ReconstructionSamplePjS1_S1_jj : hostFun 0x0x403aec, fat_cubin_handle = 2
GPGPU-Sim PTX: __cudaRegisterVar: hostVar = 0x61c470; deviceAddress = cutoff2_c; deviceName = cutoff2_c
GPGPU-Sim PTX: __cudaRegisterVar: Registering const memory space of 4 bytes
GPGPU-Sim PTX registering constant cutoff2_c (4 bytes) to name mapping
GPGPU-Sim PTX: __cudaRegisterVar: hostVar = 0x61c474; deviceAddress = cutoff_c; deviceName = cutoff_c
GPGPU-Sim PTX: __cudaRegisterVar: Registering const memory space of 4 bytes
GPGPU-Sim PTX registering constant cutoff_c (4 bytes) to name mapping
GPGPU-Sim PTX: __cudaRegisterVar: hostVar = 0x61c478; deviceAddress = gridSize_c; deviceName = gridSize_c
GPGPU-Sim PTX: __cudaRegisterVar: Registering const memory space of 12 bytes
GPGPU-Sim PTX registering constant gridSize_c (12 bytes) to name mapping
GPGPU-Sim PTX: __cudaRegisterVar: hostVar = 0x61c484; deviceAddress = size_xy_c; deviceName = size_xy_c
GPGPU-Sim PTX: __cudaRegisterVar: Registering const memory space of 4 bytes
GPGPU-Sim PTX registering constant size_xy_c (4 bytes) to name mapping
GPGPU-Sim PTX: __cudaRegisterVar: hostVar = 0x61c488; deviceAddress = _1overCutoff2_c; deviceName = _1overCutoff2_c
GPGPU-Sim PTX: __cudaRegisterVar: Registering const memory space of 4 bytes
GPGPU-Sim PTX registering constant _1overCutoff2_c (4 bytes) to name mapping
GPGPU-Sim PTX: __cudaRegisterVar: hostVar = 0x61c4a0; deviceAddress = NVM_log; deviceName = NVM_log
GPGPU-Sim PTX: __cudaRegisterVar: Registering const memory space of 67108864 bytes
GPGPU-Sim PTX registering global NVM_log hostVar to name mapping
GPGPU-Sim PTX: __cudaRegisterVar: hostVar = 0x461c4a0; deviceAddress = NVM_flag; deviceName = NVM_flag
GPGPU-Sim PTX: __cudaRegisterVar: Registering const memory space of 4194304 bytes
GPGPU-Sim PTX registering global NVM_flag hostVar to name mapping
self exe links to: /home/pli11/Videos/parboil_benchmark/parboil/benchmarks/mri-gridding/build/nvm_ssort_default/mri-gridding
self exe links to: /home/pli11/Videos/parboil_benchmark/parboil/benchmarks/mri-gridding/build/nvm_ssort_default/mri-gridding
10.1
GPGPU-Sim PTX: __cudaRegisterFatBinary, fat_cubin_handle = 3, filename=default
GPGPU-Sim PTX: __cudaRegisterFunction _Z10uniformAddjPjS_ : hostFun 0x0x405ec1, fat_cubin_handle = 3
GPGPU-Sim PTX: __cudaRegisterFunction _Z18scan_inter2_kernelPjj : hostFun 0x0x405d6f, fat_cubin_handle = 3
GPGPU-Sim PTX: __cudaRegisterFunction _Z18scan_inter1_kernelPjj : hostFun 0x0x405c33, fat_cubin_handle = 3
GPGPU-Sim PTX: __cudaRegisterFunction _Z14scan_L1_kerneljPjS_ : hostFun 0x0x405aef, fat_cubin_handle = 3
self exe links to: /home/pli11/Videos/parboil_benchmark/parboil/benchmarks/mri-gridding/build/nvm_ssort_default/mri-gridding
self exe links to: /home/pli11/Videos/parboil_benchmark/parboil/benchmarks/mri-gridding/build/nvm_ssort_default/mri-gridding
10.1
GPGPU-Sim PTX: __cudaRegisterFatBinary, fat_cubin_handle = 4, filename=default
GPGPU-Sim PTX: __cudaRegisterFunction _Z14splitRearrangeiiPjS_S_S_S_ : hostFun 0x0x40a3f5, fat_cubin_handle = 4
GPGPU-Sim PTX: __cudaRegisterFunction _Z19splitRearrange_nvm5iiPjS_S_S_S_ : hostFun 0x0x40a1fd, fat_cubin_handle = 4
GPGPU-Sim PTX: __cudaRegisterFunction _Z19splitRearrange_nvm6iiPjS_S_S_S_ : hostFun 0x0x40a005, fat_cubin_handle = 4
GPGPU-Sim PTX: __cudaRegisterFunction _Z19splitRearrange_nvmiiiPjS_S_S_S_ : hostFun 0x0x409e0d, fat_cubin_handle = 4
GPGPU-Sim PTX: __cudaRegisterFunction _Z19splitRearrange_nvm4iiPjS_S_S_S_ : hostFun 0x0x409c15, fat_cubin_handle = 4
GPGPU-Sim PTX: __cudaRegisterFunction _Z19splitRearrange_nvm3iiPjS_S_S_S_ : hostFun 0x0x409a1d, fat_cubin_handle = 4
GPGPU-Sim PTX: __cudaRegisterFunction _Z19splitRearrange_nvmgiiPjS_S_S_S_ : hostFun 0x0x409825, fat_cubin_handle = 4
GPGPU-Sim PTX: __cudaRegisterFunction _Z14splitSort_nvm6iiPjS_S_ : hostFun 0x0x40963a, fat_cubin_handle = 4
GPGPU-Sim PTX: __cudaRegisterFunction _Z14splitSort_nvm5iiPjS_S_ : hostFun 0x0x4094a4, fat_cubin_handle = 4
GPGPU-Sim PTX: __cudaRegisterFunction _Z14splitSort_nvmiiiPjS_S_ : hostFun 0x0x40930e, fat_cubin_handle = 4
GPGPU-Sim PTX: __cudaRegisterFunction _Z14splitSort_nvm4iiPjS_S_ : hostFun 0x0x409178, fat_cubin_handle = 4
GPGPU-Sim PTX: __cudaRegisterFunction _Z14splitSort_nvm3iiPjS_S_ : hostFun 0x0x408fe2, fat_cubin_handle = 4
GPGPU-Sim PTX: __cudaRegisterFunction _Z14splitSort_nvmgiiPjS_S_ : hostFun 0x0x408e4c, fat_cubin_handle = 4
GPGPU-Sim PTX: __cudaRegisterFunction _Z19splitRearrange_nvm2iiPjS_S_S_S_ : hostFun 0x0x408ca9, fat_cubin_handle = 4
GPGPU-Sim PTX: __cudaRegisterFunction _Z19splitRearrange_nvm1iiPjS_S_S_S_ : hostFun 0x0x408ab1, fat_cubin_handle = 4
GPGPU-Sim PTX: __cudaRegisterFunction _Z19splitRearrange_nvmwiiPjS_S_S_S_ : hostFun 0x0x4088b9, fat_cubin_handle = 4
GPGPU-Sim PTX: __cudaRegisterFunction _Z19splitRearrange_nvmuiiPjS_S_S_S_ : hostFun 0x0x4086c1, fat_cubin_handle = 4
GPGPU-Sim PTX: __cudaRegisterFunction _Z19splitRearrange_nvmqiiPjS_S_S_S_ : hostFun 0x0x4084c9, fat_cubin_handle = 4
GPGPU-Sim PTX: __cudaRegisterFunction _Z19splitRearrange_nvmoiiPjS_S_S_S_ : hostFun 0x0x4082d1, fat_cubin_handle = 4
GPGPU-Sim PTX: __cudaRegisterFunction _Z19splitRearrange_nvmdiiPjS_S_S_S_ : hostFun 0x0x4080d9, fat_cubin_handle = 4
GPGPU-Sim PTX: __cudaRegisterFunction _Z19splitRearrange_nvmbiiPjS_S_S_S_ : hostFun 0x0x407ee1, fat_cubin_handle = 4
GPGPU-Sim PTX: __cudaRegisterFunction _Z14splitSort_nvmdiiPjS_S_ : hostFun 0x0x407cf6, fat_cubin_handle = 4
GPGPU-Sim PTX: __cudaRegisterFunction _Z14splitSort_nvmbiiPjS_S_ : hostFun 0x0x407b60, fat_cubin_handle = 4
GPGPU-Sim PTX: __cudaRegisterFunction _Z14splitSort_nvm2iiPjS_S_ : hostFun 0x0x4079ca, fat_cubin_handle = 4
GPGPU-Sim PTX: __cudaRegisterFunction _Z14splitSort_nvm1iiPjS_S_ : hostFun 0x0x407834, fat_cubin_handle = 4
GPGPU-Sim PTX: __cudaRegisterFunction _Z14splitSort_nvmwiiPjS_S_ : hostFun 0x0x40769e, fat_cubin_handle = 4
GPGPU-Sim PTX: __cudaRegisterFunction _Z14splitSort_nvmuiiPjS_S_ : hostFun 0x0x407508, fat_cubin_handle = 4
GPGPU-Sim PTX: __cudaRegisterFunction _Z14splitSort_nvmqiiPjS_S_ : hostFun 0x0x407372, fat_cubin_handle = 4
GPGPU-Sim PTX: __cudaRegisterFunction _Z14splitSort_nvmoiiPjS_S_ : hostFun 0x0x4071dc, fat_cubin_handle = 4
GPGPU-Sim PTX: __cudaRegisterFunction _Z9splitSortiiPjS_S_ : hostFun 0x0x407046, fat_cubin_handle = 4
GPGPU-Sim PTX: __cudaRegisterVar: hostVar = 0x4a1c580; deviceAddress = NVM_log1; deviceName = NVM_log1
GPGPU-Sim PTX: __cudaRegisterVar: Registering const memory space of 67108864 bytes
GPGPU-Sim PTX registering global NVM_log1 hostVar to name mapping
GPGPU-Sim PTX: __cudaRegisterVar: hostVar = 0x8a1c580; deviceAddress = NVM_log2; deviceName = NVM_log2
GPGPU-Sim PTX: __cudaRegisterVar: Registering const memory space of 67108864 bytes
GPGPU-Sim PTX registering global NVM_log2 hostVar to name mapping
GPGPU-Sim PTX: __cudaRegisterVar: hostVar = 0xca1c580; deviceAddress = NVM_log3; deviceName = NVM_log3
GPGPU-Sim PTX: __cudaRegisterVar: Registering const memory space of 67108864 bytes
GPGPU-Sim PTX registering global NVM_log3 hostVar to name mapping
GPGPU-Sim PTX: __cudaRegisterVar: hostVar = 0x10a1c580; deviceAddress = NVM_flag; deviceName = NVM_flag
GPGPU-Sim PTX: __cudaRegisterVar: Registering const memory space of 4194304 bytes
GPGPU-Sim PTX registering global NVM_flag hostVar to name mapping

Reading parameters
  Total amount of GPU memory: 2147483648 bytes
  Number of samples = 2655910
  Grid Size = 256x256x256
  Input Matrix Size = 60x60x60
  Recon Matrix Size = 60x60x60
  Kernel Width = 5.000000
  KMax = 150.00 150.00 150.00
  Oversampling = 5.000000
  GPU Binsize = 32
  Use LUT = Yes
Reading input data from files
Generating Look-Up Table
Running gold version
Running CUDA version
GPGPU-Sim PTX: cudaMemcpyToSymbol: symbol = 0x61c470
GPGPU-Sim PTX: starting gpgpu_ptx_sim_memcpy_symbol with hostVar 0x0x61c470
GPGPU-Sim PTX: gpgpu_ptx_sim_memcpy_symbol: Found PTX symbol w/ hostVar=0x61c470
GPGPU-Sim PTX: gpgpu_ptx_sim_memcpy_symbol: copying const memory 4 bytes  to  symbol cutoff2_c+0 @0x100 ...
GPGPU-Sim PTX: cudaMemcpyToSymbol: symbol = 0x61c474
GPGPU-Sim PTX: starting gpgpu_ptx_sim_memcpy_symbol with hostVar 0x0x61c474
GPGPU-Sim PTX: gpgpu_ptx_sim_memcpy_symbol: Found PTX symbol w/ hostVar=0x61c474
GPGPU-Sim PTX: gpgpu_ptx_sim_memcpy_symbol: copying const memory 4 bytes  to  symbol cutoff_c+0 @0x104 ...
GPGPU-Sim PTX: cudaMemcpyToSymbol: symbol = 0x61c478
GPGPU-Sim PTX: starting gpgpu_ptx_sim_memcpy_symbol with hostVar 0x0x61c478
GPGPU-Sim PTX: gpgpu_ptx_sim_memcpy_symbol: Found PTX symbol w/ hostVar=0x61c478
GPGPU-Sim PTX: gpgpu_ptx_sim_memcpy_symbol: copying const memory 12 bytes  to  symbol gridSize_c+0 @0x180 ...
GPGPU-Sim PTX: cudaMemcpyToSymbol: symbol = 0x61c484
GPGPU-Sim PTX: starting gpgpu_ptx_sim_memcpy_symbol with hostVar 0x0x61c484
GPGPU-Sim PTX: gpgpu_ptx_sim_memcpy_symbol: Found PTX symbol w/ hostVar=0x61c484
GPGPU-Sim PTX: gpgpu_ptx_sim_memcpy_symbol: copying const memory 4 bytes  to  symbol size_xy_c+0 @0x18c ...
GPGPU-Sim PTX: cudaMemcpyToSymbol: symbol = 0x61c488
GPGPU-Sim PTX: starting gpgpu_ptx_sim_memcpy_symbol with hostVar 0x0x61c488
GPGPU-Sim PTX: gpgpu_ptx_sim_memcpy_symbol: Found PTX symbol w/ hostVar=0x61c488
GPGPU-Sim PTX: gpgpu_ptx_sim_memcpy_symbol: copying const memory 4 bytes  to  symbol _1overCutoff2_c+0 @0x190 ...
event update
GPGPU-Sim: synchronize waiting for inactive GPU simulation
GPGPU-Sim API: Stream Manager State
GPGPU-Sim: detected inactive GPU simulation thread
GPGPU-Sim: synchronize waiting for inactive GPU simulation
GPGPU-Sim API: Stream Manager State
GPGPU-Sim: detected inactive GPU simulation thread
GPGPU-Sim: synchronize waiting for inactive GPU simulation
GPGPU-Sim API: Stream Manager State
GPGPU-Sim: detected inactive GPU simulation thread
GPGPU-Sim PTX: Setting up arguments for 4 bytes starting at 0x7fffff4a39ac..
GPGPU-Sim PTX: Setting up arguments for 4 bytes starting at 0x7fffff4a39a8..
GPGPU-Sim PTX: Setting up arguments for 8 bytes starting at 0x7fffff4a39a0..
GPGPU-Sim PTX: Setting up arguments for 8 bytes starting at 0x7fffff4a3998..
GPGPU-Sim PTX: Setting up arguments for 8 bytes starting at 0x7fffff4a3990..

GPGPU-Sim PTX: cudaLaunch for 0x0x407372 (mode=performance simulation) on stream 0
GPGPU-Sim PTX: finding reconvergence points for '_Z14splitSort_nvmqiiPjS_S_'...
GPGPU-Sim PTX: Finding dominators for '_Z14splitSort_nvmqiiPjS_S_'...
GPGPU-Sim PTX: Finding immediate dominators for '_Z14splitSort_nvmqiiPjS_S_'...
GPGPU-Sim PTX: Finding postdominators for '_Z14splitSort_nvmqiiPjS_S_'...
GPGPU-Sim PTX: Finding immediate postdominators for '_Z14splitSort_nvmqiiPjS_S_'...
GPGPU-Sim PTX: pre-decoding instructions for '_Z14splitSort_nvmqiiPjS_S_'...
GPGPU-Sim PTX: reconvergence points for _Z14splitSort_nvmqiiPjS_S_...
GPGPU-Sim PTX:  1 (potential) branch divergence @  PC=0x6540 (mri-gridding.4.sm_70.ptx:938) @%p1 bra BB2_2;
GPGPU-Sim PTX:    immediate post dominator      @  PC=0x6570 (mri-gridding.4.sm_70.ptx:947) shl.b32 %r83, %r3, 2;
GPGPU-Sim PTX:  2 (potential) branch divergence @  PC=0x6590 (mri-gridding.4.sm_70.ptx:951) @%p2 bra BB2_4;
GPGPU-Sim PTX:    immediate post dominator      @  PC=0x65a8 (mri-gridding.4.sm_70.ptx:957) bar.sync 0;
GPGPU-Sim PTX:  3 (potential) branch divergence @  PC=0x6a48 (mri-gridding.4.sm_70.ptx:1107) @%p3 bra BB2_9;
GPGPU-Sim PTX:    immediate post dominator      @  PC=0x6b38 (mri-gridding.4.sm_70.ptx:1144) setp.ne.s32%p6, %r3, 0;
GPGPU-Sim PTX:  4 (potential) branch divergence @  PC=0x6a60 (mri-gridding.4.sm_70.ptx:1112) @%p4 bra BB2_8;
GPGPU-Sim PTX:    immediate post dominator      @  PC=0x6b18 (mri-gridding.4.sm_70.ptx:1138) shl.b32 %r315, %r315, 1;
GPGPU-Sim PTX:  5 (potential) branch divergence @  PC=0x6b30 (mri-gridding.4.sm_70.ptx:1141) @%p5 bra BB2_6;
GPGPU-Sim PTX:    immediate post dominator      @  PC=0x6b38 (mri-gridding.4.sm_70.ptx:1144) setp.ne.s32%p6, %r3, 0;
GPGPU-Sim PTX:  6 (potential) branch divergence @  PC=0x6b40 (mri-gridding.4.sm_70.ptx:1145) @%p6 bra BB2_11;
GPGPU-Sim PTX:    immediate post dominator      @  PC=0x6b78 (mri-gridding.4.sm_70.ptx:1155) mov.u32 %r316, %r87;
GPGPU-Sim PTX:  7 (potential) branch divergence @  PC=0x6b80 (mri-gridding.4.sm_70.ptx:1156) @%p3 bra BB2_15;
GPGPU-Sim PTX:    immediate post dominator      @  PC=0x6c80 (mri-gridding.4.sm_70.ptx:1195) bar.sync 0;
GPGPU-Sim PTX:  8 (potential) branch divergence @  PC=0x6ba0 (mri-gridding.4.sm_70.ptx:1162) @%p8 bra BB2_14;
GPGPU-Sim PTX:    immediate post dominator      @  PC=0x6c68 (mri-gridding.4.sm_70.ptx:1190) shl.b32 %r316, %r316, 1;
GPGPU-Sim PTX:  9 (potential) branch divergence @  PC=0x6c78 (mri-gridding.4.sm_70.ptx:1192) @%p9 bra BB2_12;
GPGPU-Sim PTX:    immediate post dominator      @  PC=0x6c80 (mri-gridding.4.sm_70.ptx:1195) bar.sync 0;
GPGPU-Sim PTX: 10 (potential) branch divergence @  PC=0x6e00 (mri-gridding.4.sm_70.ptx:1243) @%p14 bra BB2_5;
GPGPU-Sim PTX:    immediate post dominator      @  PC=0x6e08 (mri-gridding.4.sm_70.ptx:1245) @%p1 bra BB2_18;
GPGPU-Sim PTX: 11 (potential) branch divergence @  PC=0x6e08 (mri-gridding.4.sm_70.ptx:1245) @%p1 bra BB2_18;
GPGPU-Sim PTX:    immediate post dominator      @  PC=0x6ed0 (mri-gridding.4.sm_70.ptx:1273) mov.u32 %r274, %nctaid.x;
GPGPU-Sim PTX: 12 (potential) branch divergence @  PC=0x6ee0 (mri-gridding.4.sm_70.ptx:1275) @%p2 bra BB2_20;
GPGPU-Sim PTX:    immediate post dominator      @  PC=0x6f08 (mri-gridding.4.sm_70.ptx:1283) add.s32 %r285, %r310, %r2;
GPGPU-Sim PTX: ... end of reconvergence points for _Z14splitSort_nvmqiiPjS_S_
GPGPU-Sim PTX: ... done pre-decoding instructions for '_Z14splitSort_nvmqiiPjS_S_'.
GPGPU-Sim PTX: pushing kernel '_Z14splitSort_nvmqiiPjS_S_' to stream 0, gridDim= (2594,1,1) blockDim = (256,1,1) 
GPGPU-Sim uArch: Shader 0 bind to kernel 1 '_Z14splitSort_nvmqiiPjS_S_'
GPGPU-Sim uArch: CTA/core = 5, limited by: regs
GPGPU-Sim: Reconfigure L1 cache to 96KB
GPGPU-Sim uArch: Shader 1 bind to kernel 1 '_Z14splitSort_nvmqiiPjS_S_'
GPGPU-Sim uArch: Shader 2 bind to kernel 1 '_Z14splitSort_nvmqiiPjS_S_'
GPGPU-Sim uArch: Shader 3 bind to kernel 1 '_Z14splitSort_nvmqiiPjS_S_'
GPGPU-Sim uArch: Shader 4 bind to kernel 1 '_Z14splitSort_nvmqiiPjS_S_'
GPGPU-Sim uArch: Shader 5 bind to kernel 1 '_Z14splitSort_nvmqiiPjS_S_'
GPGPU-Sim uArch: Shader 6 bind to kernel 1 '_Z14splitSort_nvmqiiPjS_S_'
GPGPU-Sim uArch: Shader 7 bind to kernel 1 '_Z14splitSort_nvmqiiPjS_S_'
GPGPU-Sim uArch: Shader 8 bind to kernel 1 '_Z14splitSort_nvmqiiPjS_S_'
GPGPU-Sim uArch: Shader 9 bind to kernel 1 '_Z14splitSort_nvmqiiPjS_S_'
GPGPU-Sim uArch: Shader 10 bind to kernel 1 '_Z14splitSort_nvmqiiPjS_S_'
GPGPU-Sim uArch: Shader 11 bind to kernel 1 '_Z14splitSort_nvmqiiPjS_S_'
GPGPU-Sim uArch: Shader 12 bind to kernel 1 '_Z14splitSort_nvmqiiPjS_S_'
GPGPU-Sim uArch: Shader 13 bind to kernel 1 '_Z14splitSort_nvmqiiPjS_S_'
GPGPU-Sim uArch: Shader 14 bind to kernel 1 '_Z14splitSort_nvmqiiPjS_S_'
GPGPU-Sim uArch: Shader 15 bind to kernel 1 '_Z14splitSort_nvmqiiPjS_S_'
GPGPU-Sim uArch: Shader 16 bind to kernel 1 '_Z14splitSort_nvmqiiPjS_S_'
GPGPU-Sim uArch: Shader 17 bind to kernel 1 '_Z14splitSort_nvmqiiPjS_S_'
GPGPU-Sim uArch: Shader 18 bind to kernel 1 '_Z14splitSort_nvmqiiPjS_S_'
GPGPU-Sim uArch: Shader 19 bind to kernel 1 '_Z14splitSort_nvmqiiPjS_S_'
GPGPU-Sim uArch: Shader 20 bind to kernel 1 '_Z14splitSort_nvmqiiPjS_S_'
GPGPU-Sim uArch: Shader 21 bind to kernel 1 '_Z14splitSort_nvmqiiPjS_S_'
GPGPU-Sim uArch: Shader 22 bind to kernel 1 '_Z14splitSort_nvmqiiPjS_S_'
GPGPU-Sim uArch: Shader 23 bind to kernel 1 '_Z14splitSort_nvmqiiPjS_S_'
GPGPU-Sim uArch: Shader 24 bind to kernel 1 '_Z14splitSort_nvmqiiPjS_S_'
GPGPU-Sim uArch: Shader 25 bind to kernel 1 '_Z14splitSort_nvmqiiPjS_S_'
GPGPU-Sim uArch: Shader 26 bind to kernel 1 '_Z14splitSort_nvmqiiPjS_S_'
GPGPU-Sim uArch: Shader 27 bind to kernel 1 '_Z14splitSort_nvmqiiPjS_S_'
GPGPU-Sim uArch: Shader 28 bind to kernel 1 '_Z14splitSort_nvmqiiPjS_S_'
GPGPU-Sim uArch: Shader 29 bind to kernel 1 '_Z14splitSort_nvmqiiPjS_S_'
GPGPU-Sim uArch: Shader 30 bind to kernel 1 '_Z14splitSort_nvmqiiPjS_S_'
GPGPU-Sim uArch: Shader 31 bind to kernel 1 '_Z14splitSort_nvmqiiPjS_S_'
GPGPU-Sim uArch: Shader 32 bind to kernel 1 '_Z14splitSort_nvmqiiPjS_S_'
GPGPU-Sim uArch: Shader 33 bind to kernel 1 '_Z14splitSort_nvmqiiPjS_S_'
GPGPU-Sim uArch: Shader 34 bind to kernel 1 '_Z14splitSort_nvmqiiPjS_S_'
GPGPU-Sim uArch: Shader 35 bind to kernel 1 '_Z14splitSort_nvmqiiPjS_S_'
GPGPU-Sim uArch: Shader 36 bind to kernel 1 '_Z14splitSort_nvmqiiPjS_S_'
GPGPU-Sim uArch: Shader 37 bind to kernel 1 '_Z14splitSort_nvmqiiPjS_S_'
GPGPU-Sim uArch: Shader 38 bind to kernel 1 '_Z14splitSort_nvmqiiPjS_S_'
GPGPU-Sim uArch: Shader 39 bind to kernel 1 '_Z14splitSort_nvmqiiPjS_S_'
GPGPU-Sim uArch: Shader 40 bind to kernel 1 '_Z14splitSort_nvmqiiPjS_S_'
GPGPU-Sim uArch: Shader 41 bind to kernel 1 '_Z14splitSort_nvmqiiPjS_S_'
GPGPU-Sim uArch: Shader 42 bind to kernel 1 '_Z14splitSort_nvmqiiPjS_S_'
GPGPU-Sim uArch: Shader 43 bind to kernel 1 '_Z14splitSort_nvmqiiPjS_S_'
GPGPU-Sim uArch: Shader 44 bind to kernel 1 '_Z14splitSort_nvmqiiPjS_S_'
GPGPU-Sim uArch: Shader 45 bind to kernel 1 '_Z14splitSort_nvmqiiPjS_S_'
GPGPU-Sim uArch: Shader 46 bind to kernel 1 '_Z14splitSort_nvmqiiPjS_S_'
GPGPU-Sim uArch: Shader 47 bind to kernel 1 '_Z14splitSort_nvmqiiPjS_S_'
GPGPU-Sim uArch: Shader 48 bind to kernel 1 '_Z14splitSort_nvmqiiPjS_S_'
GPGPU-Sim uArch: Shader 49 bind to kernel 1 '_Z14splitSort_nvmqiiPjS_S_'
GPGPU-Sim uArch: Shader 50 bind to kernel 1 '_Z14splitSort_nvmqiiPjS_S_'
GPGPU-Sim uArch: Shader 51 bind to kernel 1 '_Z14splitSort_nvmqiiPjS_S_'
GPGPU-Sim uArch: Shader 52 bind to kernel 1 '_Z14splitSort_nvmqiiPjS_S_'
GPGPU-Sim uArch: Shader 53 bind to kernel 1 '_Z14splitSort_nvmqiiPjS_S_'
GPGPU-Sim uArch: Shader 54 bind to kernel 1 '_Z14splitSort_nvmqiiPjS_S_'
GPGPU-Sim uArch: Shader 55 bind to kernel 1 '_Z14splitSort_nvmqiiPjS_S_'
GPGPU-Sim uArch: Shader 56 bind to kernel 1 '_Z14splitSort_nvmqiiPjS_S_'
GPGPU-Sim uArch: Shader 57 bind to kernel 1 '_Z14splitSort_nvmqiiPjS_S_'
GPGPU-Sim uArch: Shader 58 bind to kernel 1 '_Z14splitSort_nvmqiiPjS_S_'
GPGPU-Sim uArch: Shader 59 bind to kernel 1 '_Z14splitSort_nvmqiiPjS_S_'
GPGPU-Sim uArch: Shader 60 bind to kernel 1 '_Z14splitSort_nvmqiiPjS_S_'
GPGPU-Sim uArch: Shader 61 bind to kernel 1 '_Z14splitSort_nvmqiiPjS_S_'
GPGPU-Sim uArch: Shader 62 bind to kernel 1 '_Z14splitSort_nvmqiiPjS_S_'
GPGPU-Sim uArch: Shader 63 bind to kernel 1 '_Z14splitSort_nvmqiiPjS_S_'
GPGPU-Sim uArch: Shader 64 bind to kernel 1 '_Z14splitSort_nvmqiiPjS_S_'
GPGPU-Sim uArch: Shader 65 bind to kernel 1 '_Z14splitSort_nvmqiiPjS_S_'
GPGPU-Sim uArch: Shader 66 bind to kernel 1 '_Z14splitSort_nvmqiiPjS_S_'
GPGPU-Sim uArch: Shader 67 bind to kernel 1 '_Z14splitSort_nvmqiiPjS_S_'
GPGPU-Sim uArch: Shader 68 bind to kernel 1 '_Z14splitSort_nvmqiiPjS_S_'
GPGPU-Sim uArch: Shader 69 bind to kernel 1 '_Z14splitSort_nvmqiiPjS_S_'
GPGPU-Sim uArch: Shader 70 bind to kernel 1 '_Z14splitSort_nvmqiiPjS_S_'
GPGPU-Sim uArch: Shader 71 bind to kernel 1 '_Z14splitSort_nvmqiiPjS_S_'
GPGPU-Sim uArch: Shader 72 bind to kernel 1 '_Z14splitSort_nvmqiiPjS_S_'
GPGPU-Sim uArch: Shader 73 bind to kernel 1 '_Z14splitSort_nvmqiiPjS_S_'
GPGPU-Sim uArch: Shader 74 bind to kernel 1 '_Z14splitSort_nvmqiiPjS_S_'
GPGPU-Sim uArch: Shader 75 bind to kernel 1 '_Z14splitSort_nvmqiiPjS_S_'
GPGPU-Sim uArch: Shader 76 bind to kernel 1 '_Z14splitSort_nvmqiiPjS_S_'
GPGPU-Sim uArch: Shader 77 bind to kernel 1 '_Z14splitSort_nvmqiiPjS_S_'
GPGPU-Sim uArch: Shader 78 bind to kernel 1 '_Z14splitSort_nvmqiiPjS_S_'
GPGPU-Sim uArch: Shader 79 bind to kernel 1 '_Z14splitSort_nvmqiiPjS_S_'
Destroy streams for kernel 1: size 0
kernel_name = _Z14splitSort_nvmqiiPjS_S_ 
kernel_launch_uid = 1 
gpu_sim_cycle = 369579
gpu_sim_insn = 981909686
gpu_ipc =    2656.8330
gpu_tot_sim_cycle = 369579
gpu_tot_sim_insn = 981909686
gpu_tot_ipc =    2656.8330
gpu_tot_issued_cta = 2594
gpu_occupancy = 59.3663% 
gpu_tot_occupancy = 59.3663% 
max_total_param_size = 0
gpu_stall_dramfull = 4984
gpu_stall_icnt2sh    = 0
partiton_level_parallism =      17.6850
partiton_level_parallism_total  =      17.6850
partiton_level_parallism_util =      21.2739
partiton_level_parallism_util_total  =      21.2739
L2_BW  =     640.6228 GB/Sec
L2_BW_total  =     640.6228 GB/Sec
gpu_total_sim_rate=260453
############## bottleneck_stats #############
cycles: core 369579, icnt 369579, l2 369579, dram 277510
gpu_ipc	2656.833
gpu_tot_issued_cta = 2594, average cycles = 142
n_dram_writes	 0, n_dram_reads	 0
n_GLOBAL_ACC_R	 663978 
n_LOCAL_ACC_R	 0 
n_CONST_ACC_R	 0 
n_TEXTURE_ACC_R	 0 
n_GLOBAL_ACC_W	 0 
n_LOCAL_ACC_W	 0 
n_L1_WRBK_ACC	 0 
n_L2_WRBK_ACC	 408365 
n_L1_WR_ALLOC_R	 0 
n_L2_WR_ALLOC_R	 0 

n_sm	 80, n_schedulers	 4
scheduler util	0.282	80
L1D data util	0.452	80	0.461	2
L1D tag util	0.136	80	0.142	53
L2 data util	0.362	64	0.372	59
L2 tag util	0.276	64	0.286	49
n_l2_access	 6536560
icnt s2m util	0.000	0	0.000	49	flits per packet: -nan
icnt m2s util	0.000	0	0.000	49	flits per packet: -nan
sum=0
n_mem	 32
dram util	0.196	32	0.200	24

latency_l1_hit:	12394300, num_l1_reqs:	25066
L1 hit latency:	494
latency_l2_hit:	-333268613, num_l2_reqs:	5645526
L2 hit latency:	701
latency_dram:	1086345588, num_dram_reqs:	865426
DRAM latency:	1255

n_reg	65536, n_smem	98304, n_thread	2048, n_tb	32
reg file	0.859
smem size	0.228
thread slot	0.625
TB slot    	0.156
L1I tag util	0.630	80	0.641	0

n_mem_pipe	1, n_sp_pipe	4, n_sfu_pipe	4
mem pipe util	0.151	80	0.153	0
sp pipe util	0.000	0	0.000	0
sfu pipe util	0.000	0	0.000	0
ldst mem cycle	0.107	80	0.109	0

smem port	0.636	80

n_reg_bank	16
reg port	0.149	16	0.238	3
L1D tag util	0.136	80	0.142	53
L1D fill util	0.022	80	0.023	0
n_l1d_mshr	4096
L1D mshr util	0.008	80
n_l1d_missq	16
L1D missq util	0.032	80
L1D hit rate	0.006
L1D miss rate	0.832
L1D rsfail rate	0.161
L2 tag util	0.276	64	0.286	49
L2 fill util	0.028	64	0.028	1
n_l2_mshr	192
n_l2_missq	32
L2 mshr util	0.085	64	0.087	7
L2 missq util	0.002	64	0.002	25
L2 hit rate	0.868
L2 miss rate	0.132
L2 rsfail rate	0.000

dram activity	0.411	32	0.422	7

load trans eff	0.250
load trans sz	32.000
load_useful_bytes 5311824, load_transaction_bytes 21247296, icnt_m2s_bytes 0
n_gmem_load_insns 41500, n_gmem_load_accesses 663978
n_smem_access_insn 3937719, n_smem_accesses 18796160

tmp_counter/12	0.278

run 0.049, fetch 0.001, sync 0.574, control 0.004, data 0.357, struct 0.015
############ end_bottleneck_stats #############

========= Core cache stats =========
L1I_cache:
	L1I_total_cache_accesses = 0
	L1I_total_cache_misses = 0
	L1I_total_cache_pending_hits = 0
	L1I_total_cache_reservation_fails = 0
L1D_cache:
	L1D_cache_core[0]: Access = 42768, Miss = 42384, Miss_rate = 0.991, Pending_hits = 0, Reservation_fails = 7038
	L1D_cache_core[1]: Access = 42768, Miss = 42384, Miss_rate = 0.991, Pending_hits = 0, Reservation_fails = 7183
	L1D_cache_core[2]: Access = 42768, Miss = 42512, Miss_rate = 0.994, Pending_hits = 0, Reservation_fails = 4649
	L1D_cache_core[3]: Access = 42768, Miss = 42512, Miss_rate = 0.994, Pending_hits = 0, Reservation_fails = 5285
	L1D_cache_core[4]: Access = 42768, Miss = 42384, Miss_rate = 0.991, Pending_hits = 0, Reservation_fails = 7684
	L1D_cache_core[5]: Access = 42768, Miss = 42512, Miss_rate = 0.994, Pending_hits = 0, Reservation_fails = 6857
	L1D_cache_core[6]: Access = 42768, Miss = 42512, Miss_rate = 0.994, Pending_hits = 0, Reservation_fails = 5794
	L1D_cache_core[7]: Access = 42768, Miss = 42512, Miss_rate = 0.994, Pending_hits = 0, Reservation_fails = 5030
	L1D_cache_core[8]: Access = 42768, Miss = 42512, Miss_rate = 0.994, Pending_hits = 0, Reservation_fails = 6070
	L1D_cache_core[9]: Access = 41472, Miss = 41216, Miss_rate = 0.994, Pending_hits = 0, Reservation_fails = 7346
	L1D_cache_core[10]: Access = 42768, Miss = 42384, Miss_rate = 0.991, Pending_hits = 0, Reservation_fails = 7036
	L1D_cache_core[11]: Access = 42768, Miss = 42395, Miss_rate = 0.991, Pending_hits = 0, Reservation_fails = 6752
	L1D_cache_core[12]: Access = 42768, Miss = 42381, Miss_rate = 0.991, Pending_hits = 0, Reservation_fails = 7673
	L1D_cache_core[13]: Access = 41472, Miss = 41216, Miss_rate = 0.994, Pending_hits = 0, Reservation_fails = 7662
	L1D_cache_core[14]: Access = 42768, Miss = 42512, Miss_rate = 0.994, Pending_hits = 0, Reservation_fails = 6308
	L1D_cache_core[15]: Access = 41472, Miss = 41088, Miss_rate = 0.991, Pending_hits = 0, Reservation_fails = 6867
	L1D_cache_core[16]: Access = 42768, Miss = 42512, Miss_rate = 0.994, Pending_hits = 0, Reservation_fails = 6257
	L1D_cache_core[17]: Access = 42768, Miss = 42512, Miss_rate = 0.994, Pending_hits = 0, Reservation_fails = 7432
	L1D_cache_core[18]: Access = 41472, Miss = 41216, Miss_rate = 0.994, Pending_hits = 0, Reservation_fails = 6314
	L1D_cache_core[19]: Access = 42768, Miss = 42384, Miss_rate = 0.991, Pending_hits = 0, Reservation_fails = 7120
	L1D_cache_core[20]: Access = 41472, Miss = 41199, Miss_rate = 0.993, Pending_hits = 0, Reservation_fails = 7158
	L1D_cache_core[21]: Access = 41472, Miss = 41088, Miss_rate = 0.991, Pending_hits = 0, Reservation_fails = 8066
	L1D_cache_core[22]: Access = 42768, Miss = 42384, Miss_rate = 0.991, Pending_hits = 0, Reservation_fails = 7191
	L1D_cache_core[23]: Access = 42768, Miss = 42384, Miss_rate = 0.991, Pending_hits = 0, Reservation_fails = 6952
	L1D_cache_core[24]: Access = 42768, Miss = 42371, Miss_rate = 0.991, Pending_hits = 0, Reservation_fails = 8161
	L1D_cache_core[25]: Access = 42768, Miss = 42512, Miss_rate = 0.994, Pending_hits = 0, Reservation_fails = 7114
	L1D_cache_core[26]: Access = 42768, Miss = 42384, Miss_rate = 0.991, Pending_hits = 0, Reservation_fails = 7294
	L1D_cache_core[27]: Access = 42768, Miss = 42512, Miss_rate = 0.994, Pending_hits = 0, Reservation_fails = 6379
	L1D_cache_core[28]: Access = 42768, Miss = 42384, Miss_rate = 0.991, Pending_hits = 0, Reservation_fails = 7727
	L1D_cache_core[29]: Access = 41472, Miss = 41088, Miss_rate = 0.991, Pending_hits = 0, Reservation_fails = 7269
	L1D_cache_core[30]: Access = 42338, Miss = 42082, Miss_rate = 0.994, Pending_hits = 0, Reservation_fails = 6379
	L1D_cache_core[31]: Access = 42768, Miss = 42512, Miss_rate = 0.994, Pending_hits = 0, Reservation_fails = 6095
	L1D_cache_core[32]: Access = 41472, Miss = 41088, Miss_rate = 0.991, Pending_hits = 0, Reservation_fails = 8735
	L1D_cache_core[33]: Access = 41472, Miss = 41088, Miss_rate = 0.991, Pending_hits = 0, Reservation_fails = 9127
	L1D_cache_core[34]: Access = 41472, Miss = 41216, Miss_rate = 0.994, Pending_hits = 0, Reservation_fails = 6538
	L1D_cache_core[35]: Access = 42768, Miss = 42512, Miss_rate = 0.994, Pending_hits = 0, Reservation_fails = 7497
	L1D_cache_core[36]: Access = 42768, Miss = 42384, Miss_rate = 0.991, Pending_hits = 0, Reservation_fails = 8174
	L1D_cache_core[37]: Access = 41472, Miss = 41198, Miss_rate = 0.993, Pending_hits = 0, Reservation_fails = 8450
	L1D_cache_core[38]: Access = 42768, Miss = 42512, Miss_rate = 0.994, Pending_hits = 0, Reservation_fails = 6712
	L1D_cache_core[39]: Access = 41472, Miss = 41153, Miss_rate = 0.992, Pending_hits = 0, Reservation_fails = 8940
	L1D_cache_core[40]: Access = 41472, Miss = 41180, Miss_rate = 0.993, Pending_hits = 0, Reservation_fails = 7708
	L1D_cache_core[41]: Access = 41472, Miss = 41216, Miss_rate = 0.994, Pending_hits = 0, Reservation_fails = 9293
	L1D_cache_core[42]: Access = 42768, Miss = 42384, Miss_rate = 0.991, Pending_hits = 0, Reservation_fails = 7425
	L1D_cache_core[43]: Access = 41472, Miss = 41216, Miss_rate = 0.994, Pending_hits = 0, Reservation_fails = 8176
	L1D_cache_core[44]: Access = 41472, Miss = 41088, Miss_rate = 0.991, Pending_hits = 0, Reservation_fails = 7635
	L1D_cache_core[45]: Access = 42768, Miss = 42512, Miss_rate = 0.994, Pending_hits = 0, Reservation_fails = 8190
	L1D_cache_core[46]: Access = 41472, Miss = 41088, Miss_rate = 0.991, Pending_hits = 0, Reservation_fails = 9624
	L1D_cache_core[47]: Access = 42768, Miss = 42512, Miss_rate = 0.994, Pending_hits = 0, Reservation_fails = 7676
	L1D_cache_core[48]: Access = 41472, Miss = 41088, Miss_rate = 0.991, Pending_hits = 0, Reservation_fails = 9150
	L1D_cache_core[49]: Access = 41472, Miss = 41216, Miss_rate = 0.994, Pending_hits = 0, Reservation_fails = 9673
	L1D_cache_core[50]: Access = 41472, Miss = 41088, Miss_rate = 0.991, Pending_hits = 0, Reservation_fails = 9623
	L1D_cache_core[51]: Access = 41472, Miss = 41216, Miss_rate = 0.994, Pending_hits = 0, Reservation_fails = 8690
	L1D_cache_core[52]: Access = 41472, Miss = 41088, Miss_rate = 0.991, Pending_hits = 0, Reservation_fails = 10587
	L1D_cache_core[53]: Access = 41472, Miss = 41216, Miss_rate = 0.994, Pending_hits = 0, Reservation_fails = 10896
	L1D_cache_core[54]: Access = 41472, Miss = 41088, Miss_rate = 0.991, Pending_hits = 0, Reservation_fails = 9494
	L1D_cache_core[55]: Access = 41472, Miss = 41140, Miss_rate = 0.992, Pending_hits = 0, Reservation_fails = 8952
	L1D_cache_core[56]: Access = 41472, Miss = 41158, Miss_rate = 0.992, Pending_hits = 0, Reservation_fails = 9128
	L1D_cache_core[57]: Access = 41472, Miss = 41216, Miss_rate = 0.994, Pending_hits = 0, Reservation_fails = 9750
	L1D_cache_core[58]: Access = 41472, Miss = 41216, Miss_rate = 0.994, Pending_hits = 0, Reservation_fails = 9178
	L1D_cache_core[59]: Access = 41472, Miss = 41216, Miss_rate = 0.994, Pending_hits = 0, Reservation_fails = 8372
	L1D_cache_core[60]: Access = 41472, Miss = 41216, Miss_rate = 0.994, Pending_hits = 0, Reservation_fails = 8597
	L1D_cache_core[61]: Access = 41472, Miss = 41216, Miss_rate = 0.994, Pending_hits = 0, Reservation_fails = 9336
	L1D_cache_core[62]: Access = 42768, Miss = 42512, Miss_rate = 0.994, Pending_hits = 0, Reservation_fails = 9141
	L1D_cache_core[63]: Access = 41472, Miss = 41104, Miss_rate = 0.991, Pending_hits = 0, Reservation_fails = 9415
	L1D_cache_core[64]: Access = 41472, Miss = 41216, Miss_rate = 0.994, Pending_hits = 0, Reservation_fails = 9377
	L1D_cache_core[65]: Access = 41472, Miss = 41216, Miss_rate = 0.994, Pending_hits = 0, Reservation_fails = 10210
	L1D_cache_core[66]: Access = 41472, Miss = 41088, Miss_rate = 0.991, Pending_hits = 0, Reservation_fails = 9756
	L1D_cache_core[67]: Access = 41472, Miss = 41088, Miss_rate = 0.991, Pending_hits = 0, Reservation_fails = 8878
	L1D_cache_core[68]: Access = 41472, Miss = 41088, Miss_rate = 0.991, Pending_hits = 0, Reservation_fails = 8930
	L1D_cache_core[69]: Access = 41472, Miss = 41216, Miss_rate = 0.994, Pending_hits = 0, Reservation_fails = 9592
	L1D_cache_core[70]: Access = 42768, Miss = 42512, Miss_rate = 0.994, Pending_hits = 0, Reservation_fails = 8648
	L1D_cache_core[71]: Access = 41472, Miss = 41216, Miss_rate = 0.994, Pending_hits = 0, Reservation_fails = 8350
	L1D_cache_core[72]: Access = 41472, Miss = 41088, Miss_rate = 0.991, Pending_hits = 0, Reservation_fails = 9992
	L1D_cache_core[73]: Access = 41472, Miss = 41088, Miss_rate = 0.991, Pending_hits = 0, Reservation_fails = 9637
	L1D_cache_core[74]: Access = 42768, Miss = 42384, Miss_rate = 0.991, Pending_hits = 0, Reservation_fails = 9501
	L1D_cache_core[75]: Access = 41472, Miss = 41216, Miss_rate = 0.994, Pending_hits = 0, Reservation_fails = 7993
	L1D_cache_core[76]: Access = 41472, Miss = 41111, Miss_rate = 0.991, Pending_hits = 0, Reservation_fails = 8975
	L1D_cache_core[77]: Access = 41472, Miss = 41088, Miss_rate = 0.991, Pending_hits = 0, Reservation_fails = 10118
	L1D_cache_core[78]: Access = 41472, Miss = 41216, Miss_rate = 0.994, Pending_hits = 0, Reservation_fails = 9470
	L1D_cache_core[79]: Access = 41472, Miss = 41216, Miss_rate = 0.994, Pending_hits = 0, Reservation_fails = 9101
	L1D_total_cache_accesses = 3361394
	L1D_total_cache_misses = 3336328
	L1D_total_cache_miss_rate = 0.9925
	L1D_total_cache_pending_hits = 0
	L1D_total_cache_reservation_fails = 646552
	L1D_cache_data_port_util = 0.001
	L1D_cache_fill_port_util = 0.023
L1C_cache:
	L1C_total_cache_accesses = 0
	L1C_total_cache_misses = 0
	L1C_total_cache_pending_hits = 0
	L1C_total_cache_reservation_fails = 0
L1T_cache:
	L1T_total_cache_accesses = 0
	L1T_total_cache_misses = 0
	L1T_total_cache_pending_hits = 0
	L1T_total_cache_reservation_fails = 0

Total_core_cache_stats:
	Total_core_cache_stats_breakdown[GLOBAL_ACC_R][HIT] = 0
	Total_core_cache_stats_breakdown[GLOBAL_ACC_R][HIT_RESERVED] = 0
	Total_core_cache_stats_breakdown[GLOBAL_ACC_R][MISS] = 663978
	Total_core_cache_stats_breakdown[GLOBAL_ACC_R][RESERVATION_FAIL] = 581748
	Total_core_cache_stats_breakdown[GLOBAL_ACC_R][SECTOR_MISS] = 0
	Total_core_cache_stats_breakdown[LOCAL_ACC_R][HIT] = 0
	Total_core_cache_stats_breakdown[LOCAL_ACC_R][HIT_RESERVED] = 0
[...]
bk0: 2560a 814511i bk1: 2560a 812992i bk2: 2560a 653332i bk3: 2560a 816565i bk4: 2560a 814654i bk5: 2560a 813866i bk6: 2560a 813458i bk7: 2560a 810975i bk8: 2608a 814591i bk9: 2608a 813621i bk10: 2688a 814952i bk11: 2688a 810136i bk12: 2672a 813940i bk13: 2664a 807996i bk14: 2624a 804776i bk15: 2624a 795612i 

------------------------------------------------------------------------

Row_Buffer_Locality = 0.951291
Row_Buffer_Locality_read = 0.939000
Row_Buffer_Locality_write = 0.961040
Bank_Level_Parallism = 2.131906
Bank_Level_Parallism_Col = 2.025509
Bank_Level_Parallism_Ready = 1.136278
write_to_read_ratio_blp_rw_average = 0.580424
GrpLevelPara = 1.757282 

BW Util details:
bwutil = 0.203615 
total_CMD = 843730 
util_bw = 171796 
Wasted_Col = 169672 
Wasted_Row = 18714 
Idle = 483548 

BW Util Bottlenecks: 
RCDc_limit = 18879 
RCDWRc_limit = 12484 
WTRc_limit = 126897 
RTWc_limit = 31807 
CCDLc_limit = 157889 
rwq = 0 
CCDLc_limit_alone = 134294 
WTRc_limit_alone = 104943 
RTWc_limit_alone = 30166 

Commands details: 
total_CMD = 843730 
n_nop = 666067 
Read = 41656 
Write = 0 
L2_Alloc = 0 
L2_WB = 130140 
n_act = 4587 
n_pre = 4571 
n_ref = 0 
n_req = 94171 
total_req = 171796 

Dual Bus Interface Util: 
issued_total_row = 9158 
issued_total_col = 171796 
Row_Bus_Util =  0.010854 
CoL_Bus_Util = 0.203615 
Either_Row_CoL_Bus_Util = 0.210569 
Issued_on_Two_Bus_Simul_Util = 0.003901 
issued_two_Eff = 0.018524 
queue_avg = 7.519771 


dram_util_bins: 0 0 0 0 0 0 0 0 0 0
dram_eff_bins: 0 0 0 0 0 0 0 0 0 0
mrqq: max=64 avg=7.51977
Memory Partition 29: 
Cache L2_bank_058:

Cache L2_bank_059:

In Dram Latency Queue (total = 0): 
DRAM[29]: 16 bks, busW=16 BL=2 CL=12, tRRD=3 tCCD=1, tRCD=12 tRAS=28 tRP=12 tRC=40
n_cmd=843730 n_nop=644923 n_act=3481 n_pre=3465 n_ref_event=0 n_req=107360 n_rd=41656 n_rd_L2_A=0 n_write=0 n_wr_bk=152943 bw_util=0.2306
n_activity=433175 dram_eff=0.4492
bk0: 2560a 818219i bk1: 2560a 816008i bk2: 2560a 640322i bk3: 2560a 818272i bk4: 2560a 817293i bk5: 2560a 816907i bk6: 2560a 813280i bk7: 2560a 815110i bk8: 2608a 815850i bk9: 2608a 815909i bk10: 2688a 811809i bk11: 2688a 815239i bk12: 2672a 815924i bk13: 2664a 815552i bk14: 2624a 809563i bk15: 2624a 811861i 

------------------------------------------------------------------------

Row_Buffer_Locality = 0.967576
Row_Buffer_Locality_read = 0.949779
Row_Buffer_Locality_write = 0.978860
Bank_Level_Parallism = 1.892858
Bank_Level_Parallism_Col = 1.814824
Bank_Level_Parallism_Ready = 1.095576
write_to_read_ratio_blp_rw_average = 0.650070
GrpLevelPara = 1.597500 

BW Util details:
bwutil = 0.230641 
total_CMD = 843730 
util_bw = 194599 
Wasted_Col = 182633 
Wasted_Row = 13670 
Idle = 452828 

BW Util Bottlenecks: 
RCDc_limit = 14907 
RCDWRc_limit = 8415 
WTRc_limit = 112822 
RTWc_limit = 27223 
CCDLc_limit = 177680 
rwq = 0 
CCDLc_limit_alone = 151468 
WTRc_limit_alone = 88487 
RTWc_limit_alone = 25346 

Commands details: 
total_CMD = 843730 
n_nop = 644923 
Read = 41656 
Write = 0 
L2_Alloc = 0 
L2_WB = 152943 
n_act = 3481 
n_pre = 3465 
n_ref = 0 
n_req = 107360 
total_req = 194599 

Dual Bus Interface Util: 
issued_total_row = 6946 
issued_total_col = 194599 
Row_Bus_Util =  0.008232 
CoL_Bus_Util = 0.230641 
Either_Row_CoL_Bus_Util = 0.235629 
Issued_on_Two_Bus_Simul_Util = 0.003245 
issued_two_Eff = 0.013772 
queue_avg = 6.454546 


dram_util_bins: 0 0 0 0 0 0 0 0 0 0
dram_eff_bins: 0 0 0 0 0 0 0 0 0 0
mrqq: max=64 avg=6.45455
Memory Partition 30: 
Cache L2_bank_060:

Cache L2_bank_061:

In Dram Latency Queue (total = 0): 
DRAM[30]: 16 bks, busW=16 BL=2 CL=12, tRRD=3 tCCD=1, tRCD=12 tRAS=28 tRP=12 tRC=40
n_cmd=843730 n_nop=646584 n_act=3356 n_pre=3340 n_ref_event=0 n_req=103878 n_rd=41656 n_rd_L2_A=0 n_write=0 n_wr_bk=151484 bw_util=0.2289
n_activity=413685 dram_eff=0.4669
bk0: 2560a 817581i bk1: 2560a 816996i bk2: 2560a 643668i bk3: 2560a 812088i bk4: 2560a 813291i bk5: 2560a 809669i bk6: 2560a 808897i bk7: 2560a 810412i bk8: 2608a 812025i bk9: 2608a 806135i bk10: 2688a 809347i bk11: 2688a 810330i bk12: 2672a 812152i bk13: 2664a 806773i bk14: 2624a 808724i bk15: 2624a 802770i 

------------------------------------------------------------------------

Row_Buffer_Locality = 0.967693
Row_Buffer_Locality_read = 0.953668
Row_Buffer_Locality_write = 0.977082
Bank_Level_Parallism = 2.088787
Bank_Level_Parallism_Col = 2.016109
Bank_Level_Parallism_Ready = 1.115797
write_to_read_ratio_blp_rw_average = 0.613561
GrpLevelPara = 1.736467 

BW Util details:
bwutil = 0.228912 
total_CMD = 843730 
util_bw = 193140 
Wasted_Col = 178154 
Wasted_Row = 12996 
Idle = 459440 

BW Util Bottlenecks: 
RCDc_limit = 12743 
RCDWRc_limit = 8690 
WTRc_limit = 148504 
RTWc_limit = 21726 
CCDLc_limit = 183195 
rwq = 0 
CCDLc_limit_alone = 152388 
WTRc_limit_alone = 118971 
RTWc_limit_alone = 20452 

Commands details: 
total_CMD = 843730 
n_nop = 646584 
Read = 41656 
Write = 0 
L2_Alloc = 0 
L2_WB = 151484 
n_act = 3356 
n_pre = 3340 
n_ref = 0 
n_req = 103878 
total_req = 193140 

Dual Bus Interface Util: 
issued_total_row = 6696 
issued_total_col = 193140 
Row_Bus_Util =  0.007936 
CoL_Bus_Util = 0.228912 
Either_Row_CoL_Bus_Util = 0.233660 
Issued_on_Two_Bus_Simul_Util = 0.003188 
issued_two_Eff = 0.013645 
queue_avg = 7.811775 


dram_util_bins: 0 0 0 0 0 0 0 0 0 0
dram_eff_bins: 0 0 0 0 0 0 0 0 0 0
mrqq: max=64 avg=7.81178
Memory Partition 31: 
Cache L2_bank_062:

Cache L2_bank_063:

In Dram Latency Queue (total = 0): 
DRAM[31]: 16 bks, busW=16 BL=2 CL=12, tRRD=3 tCCD=1, tRCD=12 tRAS=28 tRP=12 tRC=40
n_cmd=843730 n_nop=644665 n_act=3392 n_pre=3376 n_ref_event=0 n_req=107202 n_rd=41652 n_rd_L2_A=0 n_write=0 n_wr_bk=153274 bw_util=0.231
n_activity=434737 dram_eff=0.4484
bk0: 2560a 820589i bk1: 2560a 815871i bk2: 2560a 639088i bk3: 2560a 814144i bk4: 2560a 813413i bk5: 2560a 814719i bk6: 2560a 813755i bk7: 2560a 813822i bk8: 2608a 812444i bk9: 2608a 812688i bk10: 2688a 812722i bk11: 2688a 811869i bk12: 2672a 811789i bk13: 2664a 811526i bk14: 2624a 809391i bk15: 2620a 804708i 

------------------------------------------------------------------------

Row_Buffer_Locality = 0.968359
Row_Buffer_Locality_read = 0.953856
Row_Buffer_Locality_write = 0.977574
Bank_Level_Parallism = 1.968753
Bank_Level_Parallism_Col = 1.897634
Bank_Level_Parallism_Ready = 1.107574
write_to_read_ratio_blp_rw_average = 0.629869
GrpLevelPara = 1.642150 

BW Util details:
bwutil = 0.231029 
total_CMD = 843730 
util_bw = 194926 
Wasted_Col = 184014 
Wasted_Row = 14377 
Idle = 450413 

BW Util Bottlenecks: 
RCDc_limit = 13488 
RCDWRc_limit = 9277 
WTRc_limit = 131138 
RTWc_limit = 25891 
CCDLc_limit = 179110 
rwq = 0 
CCDLc_limit_alone = 152932 
WTRc_limit_alone = 106508 
RTWc_limit_alone = 24343 

Commands details: 
total_CMD = 843730 
n_nop = 644665 
Read = 41652 
Write = 0 
L2_Alloc = 0 
L2_WB = 153274 
n_act = 3392 
n_pre = 3376 
n_ref = 0 
n_req = 107202 
total_req = 194926 

Dual Bus Interface Util: 
issued_total_row = 6768 
issued_total_col = 194926 
Row_Bus_Util =  0.008022 
CoL_Bus_Util = 0.231029 
Either_Row_CoL_Bus_Util = 0.235934 
Issued_on_Two_Bus_Simul_Util = 0.003116 
issued_two_Eff = 0.013207 
queue_avg = 6.490823 


dram_util_bins: 0 0 0 0 0 0 0 0 0 0
dram_eff_bins: 0 0 0 0 0 0 0 0 0 0
mrqq: max=64 avg=6.49082

========= L2 cache stats =========
L2_cache_bank[0]: Access = 188908, Miss = 96856, Miss_rate = 0.513, Pending_hits = 155, Reservation_fails = 15675
L2_cache_bank[1]: Access = 365048, Miss = 107216, Miss_rate = 0.294, Pending_hits = 148, Reservation_fails = 9655
L2_cache_bank[2]: Access = 198960, Miss = 106837, Miss_rate = 0.537, Pending_hits = 153, Reservation_fails = 6382
L2_cache_bank[3]: Access = 382975, Miss = 111378, Miss_rate = 0.291, Pending_hits = 152, Reservation_fails = 7436
L2_cache_bank[4]: Access = 203423, Miss = 111255, Miss_rate = 0.547, Pending_hits = 151, Reservation_fails = 15911
L2_cache_bank[5]: Access = 365048, Miss = 107121, Miss_rate = 0.293, Pending_hits = 159, Reservation_fails = 10272
L2_cache_bank[6]: Access = 198960, Miss = 106984, Miss_rate = 0.538, Pending_hits = 157, Reservation_fails = 14083
L2_cache_bank[7]: Access = 382975, Miss = 111812, Miss_rate = 0.292, Pending_hits = 172, Reservation_fails = 13639
L2_cache_bank[8]: Access = 203423, Miss = 111220, Miss_rate = 0.547, Pending_hits = 158, Reservation_fails = 15786
L2_cache_bank[9]: Access = 365048, Miss = 107004, Miss_rate = 0.293, Pending_hits = 166, Reservation_fails = 14620
L2_cache_bank[10]: Access = 198960, Miss = 106793, Miss_rate = 0.537, Pending_hits = 169, Reservation_fails = 12317
L2_cache_bank[11]: Access = 382951, Miss = 111378, Miss_rate = 0.291, Pending_hits = 164, Reservation_fails = 12487
L2_cache_bank[12]: Access = 203423, Miss = 111560, Miss_rate = 0.548, Pending_hits = 178, Reservation_fails = 25001
L2_cache_bank[13]: Access = 364952, Miss = 106925, Miss_rate = 0.293, Pending_hits = 153, Reservation_fails = 12886
L2_cache_bank[14]: Access = 198960, Miss = 107192, Miss_rate = 0.539, Pending_hits = 185, Reservation_fails = 30793
L2_cache_bank[15]: Access = 382878, Miss = 111325, Miss_rate = 0.291, Pending_hits = 161, Reservation_fails = 13078
L2_cache_bank[16]: Access = 203423, Miss = 111856, Miss_rate = 0.550, Pending_hits = 165, Reservation_fails = 14075
L2_cache_bank[17]: Access = 364952, Miss = 106741, Miss_rate = 0.292, Pending_hits = 166, Reservation_fails = 14972
L2_cache_bank[18]: Access = 198960, Miss = 107148, Miss_rate = 0.539, Pending_hits = 170, Reservation_fails = 20422
L2_cache_bank[19]: Access = 382878, Miss = 111009, Miss_rate = 0.290, Pending_hits = 169, Reservation_fails = 16358
L2_cache_bank[20]: Access = 203415, Miss = 111524, Miss_rate = 0.548, Pending_hits = 170, Reservation_fails = 16523
L2_cache_bank[21]: Access = 364951, Miss = 106485, Miss_rate = 0.292, Pending_hits = 173, Reservation_fails = 15698
L2_cache_bank[22]: Access = 198928, Miss = 107161, Miss_rate = 0.539, Pending_hits = 142, Reservation_fails = 4416
L2_cache_bank[23]: Access = 165697, Miss = 38008, Miss_rate = 0.229, Pending_hits = 148, Reservation_fails = 7905
L2_cache_bank[24]: Access = 156733, Miss = 111311, Miss_rate = 0.710, Pending_hits = 96, Reservation_fails = 3558
L2_cache_bank[25]: Access = 69296, Miss = 23505, Miss_rate = 0.339, Pending_hits = 101, Reservation_fails = 2220
L2_cache_bank[26]: Access = 198928, Miss = 107168, Miss_rate = 0.539, Pending_hits = 85, Reservation_fails = 2490
L2_cache_bank[27]: Access = 116024, Miss = 23897, Miss_rate = 0.206, Pending_hits = 85, Reservation_fails = 1722
L2_cache_bank[28]: Access = 203390, Miss = 111642, Miss_rate = 0.549, Pending_hits = 103, Reservation_fails = 4133
L2_cache_bank[29]: Access = 116023, Miss = 24157, Miss_rate = 0.208, Pending_hits = 92, Reservation_fails = 2905
L2_cache_bank[30]: Access = 198928, Miss = 107068, Miss_rate = 0.538, Pending_hits = 90, Reservation_fails = 4506
L2_cache_bank[31]: Access = 116024, Miss = 24376, Miss_rate = 0.210, Pending_hits = 98, Reservation_fails = 4110
L2_cache_bank[32]: Access = 130416, Miss = 38494, Miss_rate = 0.295, Pending_hits = 89, Reservation_fails = 2375
L2_cache_bank[33]: Access = 116024, Miss = 24477, Miss_rate = 0.211, Pending_hits = 85, Reservation_fails = 4230
L2_cache_bank[34]: Access = 115952, Miss = 23844, Miss_rate = 0.206, Pending_hits = 89, Reservation_fails = 1548
L2_cache_bank[35]: Access = 116024, Miss = 24096, Miss_rate = 0.208, Pending_hits = 92, Reservation_fails = 2148
L2_cache_bank[36]: Access = 115951, Miss = 23749, Miss_rate = 0.205, Pending_hits = 76, Reservation_fails = 2171
L2_cache_bank[37]: Access = 116024, Miss = 24153, Miss_rate = 0.208, Pending_hits = 80, Reservation_fails = 6153
L2_cache_bank[38]: Access = 115952, Miss = 24092, Miss_rate = 0.208, Pending_hits = 82, Reservation_fails = 4625
L2_cache_bank[39]: Access = 116024, Miss = 24388, Miss_rate = 0.210, Pending_hits = 99, Reservation_fails = 4464
L2_cache_bank[40]: Access = 115952, Miss = 23948, Miss_rate = 0.207, Pending_hits = 80, Reservation_fails = 5447
L2_cache_bank[41]: Access = 116023, Miss = 24229, Miss_rate = 0.209, Pending_hits = 100, Reservation_fails = 6401
L2_cache_bank[42]: Access = 115952, Miss = 23896, Miss_rate = 0.206, Pending_hits = 90, Reservation_fails = 2607
L2_cache_bank[43]: Access = 116024, Miss = 24336, Miss_rate = 0.210, Pending_hits = 86, Reservation_fails = 2849
L2_cache_bank[44]: Access = 115951, Miss = 23845, Miss_rate = 0.206, Pending_hits = 83, Reservation_fails = 4205
L2_cache_bank[45]: Access = 115934, Miss = 24490, Miss_rate = 0.211, Pending_hits = 94, Reservation_fails = 6667
L2_cache_bank[46]: Access = 115952, Miss = 23836, Miss_rate = 0.206, Pending_hits = 79, Reservation_fails = 3969
L2_cache_bank[47]: Access = 116608, Miss = 24400, Miss_rate = 0.209, Pending_hits = 109, Reservation_fails = 7316
L2_cache_bank[48]: Access = 115952, Miss = 23732, Miss_rate = 0.205, Pending_hits = 103, Reservation_fails = 6156
L2_cache_bank[49]: Access = 116607, Miss = 24292, Miss_rate = 0.208, Pending_hits = 94, Reservation_fails = 5541
L2_cache_bank[50]: Access = 115952, Miss = 23664, Miss_rate = 0.204, Pending_hits = 102, Reservation_fails = 4541
L2_cache_bank[51]: Access = 116608, Miss = 24028, Miss_rate = 0.206, Pending_hits = 100, Reservation_fails = 2418
L2_cache_bank[52]: Access = 115952, Miss = 23560, Miss_rate = 0.203, Pending_hits = 84, Reservation_fails = 2525
L2_cache_bank[53]: Access = 116608, Miss = 24220, Miss_rate = 0.208, Pending_hits = 101, Reservation_fails = 1244
L2_cache_bank[54]: Access = 333210, Miss = 96793, Miss_rate = 0.290, Pending_hits = 163, Reservation_fails = 14838
L2_cache_bank[55]: Access = 116608, Miss = 24252, Miss_rate = 0.208, Pending_hits = 145, Reservation_fails = 17880
L2_cache_bank[56]: Access = 318320, Miss = 106344, Miss_rate = 0.334, Pending_hits = 154, Reservation_fails = 9017
L2_cache_bank[57]: Access = 69952, Miss = 23568, Miss_rate = 0.337, Pending_hits = 174, Reservation_fails = 18592
L2_cache_bank[58]: Access = 382975, Miss = 111214, Miss_rate = 0.290, Pending_hits = 158, Reservation_fails = 10100
L2_cache_bank[59]: Access = 116608, Miss = 23900, Miss_rate = 0.205, Pending_hits = 158, Reservation_fails = 15454
L2_cache_bank[60]: Access = 365048, Miss = 107040, Miss_rate = 0.293, Pending_hits = 168, Reservation_fails = 13073
L2_cache_bank[61]: Access = 116608, Miss = 23936, Miss_rate = 0.205, Pending_hits = 176, Reservation_fails = 14415
L2_cache_bank[62]: Access = 382975, Miss = 111619, Miss_rate = 0.291, Pending_hits = 148, Reservation_fails = 12183
L2_cache_bank[63]: Access = 116256, Miss = 23689, Miss_rate = 0.204, Pending_hits = 159, Reservation_fails = 13260
L2_total_cache_accesses = 12732444
L2_total_cache_misses = 4262036
L2_total_cache_miss_rate = 0.3347
L2_total_cache_pending_hits = 8234
L2_total_cache_reservation_fails = 594446
L2_total_cache_breakdown:
	L2_cache_stats_breakdown[GLOBAL_ACC_R][HIT] = 28074
	L2_cache_stats_breakdown[GLOBAL_ACC_R][HIT_RESERVED] = 8234
	L2_cache_stats_breakdown[GLOBAL_ACC_R][MISS] = 333289
	L2_cache_stats_breakdown[GLOBAL_ACC_R][RESERVATION_FAIL] = 594446
	L2_cache_stats_breakdown[GLOBAL_ACC_R][SECTOR_MISS] = 999855
	L2_cache_stats_breakdown[LOCAL_ACC_R][HIT] = 0
	L2_cache_stats_breakdown[LOCAL_ACC_R][HIT_RESERVED] = 0
	L2_cache_stats_breakdown[LOCAL_ACC_R][MISS] = 0
	L2_cache_stats_breakdown[LOCAL_ACC_R][RESERVATION_FAIL] = 0
	L2_cache_stats_breakdown[LOCAL_ACC_R][SECTOR_MISS] = 0
	L2_cache_stats_breakdown[CONST_ACC_R][HIT] = 0
	L2_cache_stats_breakdown[CONST_ACC_R][HIT_RESERVED] = 0
	L2_cache_stats_breakdown[CONST_ACC_R][MISS] = 0
	L2_cache_stats_breakdown[CONST_ACC_R][RESERVATION_FAIL] = 0
	L2_cache_stats_breakdown[CONST_ACC_R][SECTOR_MISS] = 0
	L2_cache_stats_breakdown[TEXTURE_ACC_R][HIT] = 0
	L2_cache_stats_breakdown[TEXTURE_ACC_R][HIT_RESERVED] = 0
	L2_cache_stats_breakdown[TEXTURE_ACC_R][MISS] = 0
	L2_cache_stats_breakdown[TEXTURE_ACC_R][RESERVATION_FAIL] = 0
	L2_cache_stats_breakdown[TEXTURE_ACC_R][SECTOR_MISS] = 0
	L2_cache_stats_breakdown[GLOBAL_ACC_W][HIT] = 8434100
	L2_cache_stats_breakdown[GLOBAL_ACC_W][HIT_RESERVED] = 0
	L2_cache_stats_breakdown[GLOBAL_ACC_W][MISS] = 9775
	L2_cache_stats_breakdown[GLOBAL_ACC_W][RESERVATION_FAIL] = 0
	L2_cache_stats_breakdown[GLOBAL_ACC_W][SECTOR_MISS] = 2919117
	L2_cache_stats_breakdown[LOCAL_ACC_W][HIT] = 0
	L2_cache_stats_breakdown[LOCAL_ACC_W][HIT_RESERVED] = 0
	L2_cache_stats_breakdown[LOCAL_ACC_W][MISS] = 0
	L2_cache_stats_breakdown[LOCAL_ACC_W][RESERVATION_FAIL] = 0
	L2_cache_stats_breakdown[LOCAL_ACC_W][SECTOR_MISS] = 0
	L2_cache_stats_breakdown[L1_WRBK_ACC][HIT] = 0
	L2_cache_stats_breakdown[L1_WRBK_ACC][HIT_RESERVED] = 0
	L2_cache_stats_breakdown[L1_WRBK_ACC][MISS] = 0
	L2_cache_stats_breakdown[L1_WRBK_ACC][RESERVATION_FAIL] = 0
	L2_cache_stats_breakdown[L1_WRBK_ACC][SECTOR_MISS] = 0
	L2_cache_stats_breakdown[L2_WRBK_ACC][HIT] = 0
	L2_cache_stats_breakdown[L2_WRBK_ACC][HIT_RESERVED] = 0
	L2_cache_stats_breakdown[L2_WRBK_ACC][MISS] = 0
	L2_cache_stats_breakdown[L2_WRBK_ACC][RESERVATION_FAIL] = 0
	L2_cache_stats_breakdown[L2_WRBK_ACC][SECTOR_MISS] = 0
	L2_cache_stats_breakdown[INST_ACC_R][HIT] = 0
	L2_cache_stats_breakdown[INST_ACC_R][HIT_RESERVED] = 0
	L2_cache_stats_breakdown[INST_ACC_R][MISS] = 0
	L2_cache_stats_breakdown[INST_ACC_R][RESERVATION_FAIL] = 0
	L2_cache_stats_breakdown[INST_ACC_R][SECTOR_MISS] = 0
	L2_cache_stats_breakdown[L1_WR_ALLOC_R][HIT] = 0
	L2_cache_stats_breakdown[L1_WR_ALLOC_R][HIT_RESERVED] = 0
	L2_cache_stats_breakdown[L1_WR_ALLOC_R][MISS] = 0
	L2_cache_stats_breakdown[L1_WR_ALLOC_R][RESERVATION_FAIL] = 0
	L2_cache_stats_breakdown[L1_WR_ALLOC_R][SECTOR_MISS] = 0
	L2_cache_stats_breakdown[L2_WR_ALLOC_R][HIT] = 0
	L2_cache_stats_breakdown[L2_WR_ALLOC_R][HIT_RESERVED] = 0
	L2_cache_stats_breakdown[L2_WR_ALLOC_R][MISS] = 0
	L2_cache_stats_breakdown[L2_WR_ALLOC_R][RESERVATION_FAIL] = 0
	L2_cache_stats_breakdown[L2_WR_ALLOC_R][SECTOR_MISS] = 0
	L2_cache_stats_breakdown[GLOBAL_ACC_R][TOTAL_ACCESS] = 1369452
	L2_cache_stats_breakdown[GLOBAL_ACC_W][TOTAL_ACCESS] = 11362992
L2_total_cache_reservation_fail_breakdown:
	L2_cache_stats_fail_breakdown[GLOBAL_ACC_R][MSHR_ENRTY_FAIL] = 192595
	L2_cache_stats_fail_breakdown[GLOBAL_ACC_R][MSHR_MERGE_ENRTY_FAIL] = 401851
L2_cache_data_port_util = 0.145
L2_cache_fill_port_util = 0.019

icnt_total_pkts_mem_to_simt=12732444
icnt_total_pkts_simt_to_mem=12732444
LD_mem_lat_dist  0 0 0 0 0 0 0 0 0 0 0 0 0 0 0 0 0 0 0 0 0 0 0 0 0 0 0
ST_mem_lat_dist  0 0 0 0 0 0 0 0 0 0 0 0 0 0 0 0 0 0 0 0 0 0 0 0 0 0 0
----------------------------Interconnect-DETAILS--------------------------------
Req_Network_injected_packets_num = 12732444
Req_Network_cycles = 1123651
Req_Network_injected_packets_per_cycle =      11.3313 
Req_Network_conflicts_per_cycle =      18.8445
Req_Network_conflicts_per_cycle_util =      20.2090
Req_Bank_Level_Parallism =      12.1518
Req_Network_in_buffer_full_per_cycle =       6.8924
Req_Network_in_buffer_avg_util =      98.8430
Req_Network_out_buffer_full_per_cycle =       0.1434
Req_Network_out_buffer_avg_util =       9.0991

Reply_Network_injected_packets_num = 12732444
Reply_Network_cycles = 1123651
Reply_Network_injected_packets_per_cycle =       11.3313
Reply_Network_conflicts_per_cycle =        8.5880
Reply_Network_conflicts_per_cycle_util =       9.2329
Reply_Bank_Level_Parallism =      12.1821
Reply_Network_in_buffer_full_per_cycle =       0.0000
Reply_Network_in_buffer_avg_util =       4.3574
Reply_Network_out_buffer_full_per_cycle =       0.0000
Reply_Network_out_buffer_avg_util =       0.1416
----------------------------END-of-Interconnect-DETAILS-------------------------


gpgpu_simulation_time = 0 days, 3 hrs, 41 min, 52 sec (13312 sec)
gpgpu_simulation_rate = 282717 (inst/sec)
gpgpu_simulation_rate = 84 (cycle/sec)
gpgpu_silicon_slowdown = 13476190x
GPGPU-Sim: synchronize waiting for inactive GPU simulation
GPGPU-Sim API: Stream Manager State
GPGPU-Sim: detected inactive GPU simulation thread
GPGPU-Sim: *** exit detected ***
