

        *** GPGPU-Sim Simulator Version 4.0.0  [build gpgpu-sim_git-commit-ffe0a1a00e984ecce9bf36e17ab94c4de0de8108_modified_0.0] ***


GPGPU-Sim PTX: simulation mode 0 (can change with PTX_SIM_MODE_FUNC environment variable:
               1=functional simulation only, 0=detailed performance simulator)
GPGPU-Sim PTX: overriding embedded ptx with ptx file (PTX_SIM_USE_PTX_FILE is set)
GPGPU-Sim: Configuration options:

-save_embedded_ptx                      0 # saves ptx files embedded in binary as <n>.ptx
-keep                                   0 # keep intermediate files created by GPGPU-Sim when interfacing with external programs
-gpgpu_ptx_save_converted_ptxplus                    0 # Saved converted ptxplus to a file
-gpgpu_occupancy_sm_number                   70 # The SM number to pass to ptxas when getting register usage for computing GPU occupancy. This parameter is required in the config.
-ptx_opcode_latency_int      4,13,4,5,145,21 # Opcode latencies for integers <ADD,MAX,MUL,MAD,DIV,SHFL>Default 1,1,19,25,145,32
-ptx_opcode_latency_fp          4,13,4,5,39 # Opcode latencies for single precision floating points <ADD,MAX,MUL,MAD,DIV>Default 1,1,1,1,30
-ptx_opcode_latency_dp         8,19,8,8,330 # Opcode latencies for double precision floating points <ADD,MAX,MUL,MAD,DIV>Default 8,8,8,8,335
-ptx_opcode_latency_sfu                  100 # Opcode latencies for SFU instructionsDefault 8
-ptx_opcode_latency_tesnor                   64 # Opcode latencies for Tensor instructionsDefault 64
-ptx_opcode_initiation_int          2,2,2,2,8,4 # Opcode initiation intervals for integers <ADD,MAX,MUL,MAD,DIV,SHFL>Default 1,1,4,4,32,4
-ptx_opcode_initiation_fp            2,2,2,2,4 # Opcode initiation intervals for single precision floating points <ADD,MAX,MUL,MAD,DIV>Default 1,1,1,1,5
-ptx_opcode_initiation_dp          4,4,4,4,130 # Opcode initiation intervals for double precision floating points <ADD,MAX,MUL,MAD,DIV>Default 8,8,8,8,130
-ptx_opcode_initiation_sfu                    8 # Opcode initiation intervals for sfu instructionsDefault 8
-ptx_opcode_initiation_tensor                   64 # Opcode initiation intervals for tensor instructionsDefault 64
-cdp_latency         7200,8000,100,12000,1600 # CDP API latency <cudaStreamCreateWithFlags, cudaGetParameterBufferV2_init_perWarp, cudaGetParameterBufferV2_perKernel, cudaLaunchDeviceV2_init_perWarp, cudaLaunchDevicV2_perKernel>Default 7200,8000,100,12000,1600
-network_mode                           2 # Interconnection network mode
-inter_config_file                   mesh # Interconnection network config file
-icnt_in_buffer_limit                  512 # in_buffer_limit
-icnt_out_buffer_limit                  512 # out_buffer_limit
-icnt_subnets                           2 # subnets
-icnt_arbiter_algo                      1 # arbiter_algo
-icnt_verbose                           0 # inct_verbose
-icnt_grant_cycles                      1 # grant_cycles
-gpgpu_ptx_use_cuobjdump                    1 # Use cuobjdump to extract ptx and sass from binaries
-gpgpu_experimental_lib_support                    0 # Try to extract code from cuda libraries [Broken because of unknown cudaGetExportTable]
-checkpoint_option                      0 #  checkpointing flag (0 = no checkpoint)
-checkpoint_kernel                      1 #  checkpointing during execution of which kernel (1- 1st kernel)
-checkpoint_CTA                         0 #  checkpointing after # of CTA (< less than total CTA)
-resume_option                          0 #  resume flag (0 = no resume)
-resume_kernel                          0 #  Resume from which kernel (1= 1st kernel)
-resume_CTA                             0 #  resume from which CTA 
-checkpoint_CTA_t                       0 #  resume from which CTA 
-checkpoint_insn_Y                      0 #  resume from which CTA 
-gpgpu_ptx_convert_to_ptxplus                    0 # Convert SASS (native ISA) to ptxplus and run ptxplus
-gpgpu_ptx_force_max_capability                   70 # Force maximum compute capability
-gpgpu_ptx_inst_debug_to_file                    0 # Dump executed instructions' debug information to file
-gpgpu_ptx_inst_debug_file       inst_debug.txt # Executed instructions' debug output file
-gpgpu_ptx_inst_debug_thread_uid                    1 # Thread UID for executed instructions' debug output
-gpgpu_n_mem_for_l2wb_pcommit                   32 # number of memory modules (e.g. memory controllers) in gpu
-gpgpu_n_sub_partition_per_mchannel_for_l2wb_pcommit                    2 # number of memory subpartition in each memory module
-gpgpu_dl2_bsize_for_l2wb_pcommit                  128 # default 128 bytes
-gpgpu_simd_model                       1 # 1 = post-dominator
-gpgpu_shader_core_pipeline              2048:32 # shader core pipeline config, i.e., {<nthread>:<warpsize>}
-gpgpu_tex_cache:l1  N:4:128:256,L:R:m:N:L,T:512:8,128:2 # per-shader L1 texture cache  (READ-ONLY) config  {<nsets>:<bsize>:<assoc>,<rep>:<wr>:<alloc>:<wr_alloc>,<mshr>:<N>:<merge>,<mq>:<rf>}
-gpgpu_const_cache:l1 N:128:64:8,L:R:f:N:L,S:2:64,4 # per-shader L1 constant memory cache  (READ-ONLY) config  {<nsets>:<bsize>:<assoc>,<rep>:<wr>:<alloc>:<wr_alloc>,<mshr>:<N>:<merge>,<mq>} 
-gpgpu_cache:il1     N:64:128:16,L:R:f:N:L,S:2:48,4 # shader L1 instruction cache config  {<nsets>:<bsize>:<assoc>,<rep>:<wr>:<alloc>:<wr_alloc>,<mshr>:<N>:<merge>,<mq>} 
-gpgpu_cache:dl1     S:1:128:256,L:L:s:N:L,A:256:8,16:0,32 # per-shader L1 data cache config  {<nsets>:<bsize>:<assoc>,<rep>:<wr>:<alloc>:<wr_alloc>,<mshr>:<N>:<merge>,<mq> | none}
-gpgpu_l1_banks                         4 # The number of L1 cache banks
-gpgpu_l1_banks_byte_interleaving                   32 # l1 banks byte interleaving granularity
-gpgpu_l1_banks_hashing_function                    0 # l1 banks hashing function
-gpgpu_l1_latency                      20 # L1 Hit Latency
-gpgpu_smem_latency                    20 # smem Latency
-gpgpu_cache:dl1PrefL1                 none # per-shader L1 data cache config  {<nsets>:<bsize>:<assoc>,<rep>:<wr>:<alloc>:<wr_alloc>,<mshr>:<N>:<merge>,<mq> | none}
-gpgpu_cache:dl1PrefShared                 none # per-shader L1 data cache config  {<nsets>:<bsize>:<assoc>,<rep>:<wr>:<alloc>:<wr_alloc>,<mshr>:<N>:<merge>,<mq> | none}
-gpgpu_gmem_skip_L1D                    0 # global memory access skip L1D cache (implements -Xptxas -dlcm=cg, default=no skip)
-gpgpu_perfect_mem                      0 # enable perfect memory mode (no cache miss)
-n_regfile_gating_group                    4 # group of lanes that should be read/written together)
-gpgpu_clock_gated_reg_file                    0 # enable clock gated reg file for power calculations
-gpgpu_clock_gated_lanes                    0 # enable clock gated lanes for power calculations
-gpgpu_shader_registers                65536 # Number of registers per shader core. Limits number of concurrent CTAs. (default 8192)
-gpgpu_registers_per_block                65536 # Maximum number of registers per CTA. (default 8192)
-gpgpu_ignore_resources_limitation                    0 # gpgpu_ignore_resources_limitation (default 0)
-gpgpu_shader_cta                      32 # Maximum number of concurrent CTAs in shader (default 8)
-gpgpu_num_cta_barriers                   16 # Maximum number of named barriers per CTA (default 16)
-gpgpu_n_clusters                      80 # number of processing clusters
-gpgpu_n_cores_per_cluster                    1 # number of simd cores per cluster
-gpgpu_n_cluster_ejection_buffer_size                   32 # number of packets in ejection buffer
-gpgpu_n_ldst_response_buffer_size                    2 # number of response packets in ld/st unit ejection buffer
-gpgpu_shmem_per_block                65536 # Size of shared memory per thread block or CTA (default 48kB)
-gpgpu_shmem_size                   98304 # Size of shared memory per shader core (default 16kB)
-gpgpu_adaptive_cache_config            536870913 # adaptive_cache_config
-gpgpu_shmem_sizeDefault                98304 # Size of shared memory per shader core (default 16kB)
-gpgpu_shmem_size_PrefL1                16384 # Size of shared memory per shader core (default 16kB)
-gpgpu_shmem_size_PrefShared                16384 # Size of shared memory per shader core (default 16kB)
-gpgpu_shmem_num_banks                   32 # Number of banks in the shared memory in each shader core (default 16)
-gpgpu_shmem_limited_broadcast                    0 # Limit shared memory to do one broadcast per cycle (default on)
-gpgpu_shmem_warp_parts                    1 # Number of portions a warp is divided into for shared memory bank conflict check 
-gpgpu_mem_unit_ports                    1 # The number of memory transactions allowed per core cycle
-gpgpu_shmem_warp_parts                    1 # Number of portions a warp is divided into for shared memory bank conflict check 
-gpgpu_warpdistro_shader                   -1 # Specify which shader core to collect the warp size distribution from
-gpgpu_warp_issue_shader                    0 # Specify which shader core to collect the warp issue distribution from
-gpgpu_local_mem_map                    1 # Mapping from local memory space address to simulated GPU physical address space (default = enabled)
-gpgpu_num_reg_banks                   16 # Number of register banks (default = 8)
-gpgpu_reg_bank_use_warp_id                    0 # Use warp ID in mapping registers to banks (default = off)
-gpgpu_sub_core_model                    1 # Sub Core Volta/Pascal model (default = off)
-gpgpu_enable_specialized_operand_collector                    0 # enable_specialized_operand_collector
-gpgpu_operand_collector_num_units_sp                    4 # number of collector units (default = 4)
-gpgpu_operand_collector_num_units_dp                    0 # number of collector units (default = 0)
-gpgpu_operand_collector_num_units_sfu                    4 # number of collector units (default = 4)
-gpgpu_operand_collector_num_units_int                    0 # number of collector units (default = 0)
-gpgpu_operand_collector_num_units_tensor_core                    4 # number of collector units (default = 4)
-gpgpu_operand_collector_num_units_mem                    2 # number of collector units (default = 2)
-gpgpu_operand_collector_num_units_gen                    8 # number of collector units (default = 0)
-gpgpu_operand_collector_num_in_ports_sp                    1 # number of collector unit in ports (default = 1)
-gpgpu_operand_collector_num_in_ports_dp                    0 # number of collector unit in ports (default = 0)
-gpgpu_operand_collector_num_in_ports_sfu                    1 # number of collector unit in ports (default = 1)
-gpgpu_operand_collector_num_in_ports_int                    0 # number of collector unit in ports (default = 0)
-gpgpu_operand_collector_num_in_ports_tensor_core                    1 # number of collector unit in ports (default = 1)
-gpgpu_operand_collector_num_in_ports_mem                    1 # number of collector unit in ports (default = 1)
-gpgpu_operand_collector_num_in_ports_gen                    8 # number of collector unit in ports (default = 0)
-gpgpu_operand_collector_num_out_ports_sp                    1 # number of collector unit in ports (default = 1)
-gpgpu_operand_collector_num_out_ports_dp                    0 # number of collector unit in ports (default = 0)
-gpgpu_operand_collector_num_out_ports_sfu                    1 # number of collector unit in ports (default = 1)
-gpgpu_operand_collector_num_out_ports_int                    0 # number of collector unit in ports (default = 0)
-gpgpu_operand_collector_num_out_ports_tensor_core                    1 # number of collector unit in ports (default = 1)
-gpgpu_operand_collector_num_out_ports_mem                    1 # number of collector unit in ports (default = 1)
-gpgpu_operand_collector_num_out_ports_gen                    8 # number of collector unit in ports (default = 0)
-gpgpu_coalesce_arch                   60 # Coalescing arch (GT200 = 13, Fermi = 20)
-gpgpu_num_sched_per_core                    4 # Number of warp schedulers per core
-gpgpu_max_insn_issue_per_warp                    1 # Max number of instructions that can be issued per warp in one cycle by scheduler (either 1 or 2)
-gpgpu_dual_issue_diff_exec_units                    1 # should dual issue use two different execution unit resources (Default = 1)
-gpgpu_simt_core_sim_order                    1 # Select the simulation order of cores in a cluster (0=Fix, 1=Round-Robin)
-gpgpu_pipeline_widths 4,4,4,4,4,4,4,4,4,4,8,4,4 # Pipeline widths ID_OC_SP,ID_OC_DP,ID_OC_INT,ID_OC_SFU,ID_OC_MEM,OC_EX_SP,OC_EX_DP,OC_EX_INT,OC_EX_SFU,OC_EX_MEM,EX_WB,ID_OC_TENSOR_CORE,OC_EX_TENSOR_CORE
-gpgpu_tensor_core_avail                    1 # Tensor Core Available (default=0)
-gpgpu_num_sp_units                     4 # Number of SP units (default=1)
-gpgpu_num_dp_units                     4 # Number of DP units (default=0)
-gpgpu_num_int_units                    4 # Number of INT units (default=0)
-gpgpu_num_sfu_units                    4 # Number of SF units (default=1)
-gpgpu_num_tensor_core_units                    4 # Number of tensor_core units (default=1)
-gpgpu_num_mem_units                    1 # Number if ldst units (default=1) WARNING: not hooked up to anything
-gpgpu_scheduler                      gto # Scheduler configuration: < lrr | gto | two_level_active > If two_level_active:<num_active_warps>:<inner_prioritization>:<outer_prioritization>For complete list of prioritization values see shader.h enum scheduler_prioritization_typeDefault: gto
-gpgpu_concurrent_kernel_sm                    0 # Support concurrent kernels on a SM (default = disabled)
-gpgpu_perfect_inst_const_cache                    1 # perfect inst and const cache mode, so all inst and const hits in the cache(default = disabled)
-gpgpu_inst_fetch_throughput                    4 # the number of fetched intruction per warp each cycle
-gpgpu_reg_file_port_throughput                    2 # the number ports of the register file
-specialized_unit_1         0,4,4,4,4,BRA # specialized unit config {<enabled>,<num_units>:<latency>:<initiation>,<ID_OC_SPEC>:<OC_EX_SPEC>,<NAME>}
-specialized_unit_2         0,4,4,4,4,BRA # specialized unit config {<enabled>,<num_units>:<latency>:<initiation>,<ID_OC_SPEC>:<OC_EX_SPEC>,<NAME>}
-specialized_unit_3         0,4,4,4,4,BRA # specialized unit config {<enabled>,<num_units>:<latency>:<initiation>,<ID_OC_SPEC>:<OC_EX_SPEC>,<NAME>}
-specialized_unit_4         0,4,4,4,4,BRA # specialized unit config {<enabled>,<num_units>:<latency>:<initiation>,<ID_OC_SPEC>:<OC_EX_SPEC>,<NAME>}
-specialized_unit_5         0,4,4,4,4,BRA # specialized unit config {<enabled>,<num_units>:<latency>:<initiation>,<ID_OC_SPEC>:<OC_EX_SPEC>,<NAME>}
-specialized_unit_6         0,4,4,4,4,BRA # specialized unit config {<enabled>,<num_units>:<latency>:<initiation>,<ID_OC_SPEC>:<OC_EX_SPEC>,<NAME>}
-specialized_unit_7         0,4,4,4,4,BRA # specialized unit config {<enabled>,<num_units>:<latency>:<initiation>,<ID_OC_SPEC>:<OC_EX_SPEC>,<NAME>}
-specialized_unit_8         0,4,4,4,4,BRA # specialized unit config {<enabled>,<num_units>:<latency>:<initiation>,<ID_OC_SPEC>:<OC_EX_SPEC>,<NAME>}
-gpgpu_perf_sim_memcpy                    1 # Fill the L2 cache on memcpy
-gpgpu_simple_dram_model                    0 # simple_dram_model with fixed latency and BW
-gpgpu_dram_scheduler                    1 # 0 = fifo, 1 = FR-FCFS (defaul)
-gpgpu_dram_partition_queues          64:64:64:64 # i2$:$2d:d2$:$2i
-l2_ideal                               0 # Use a ideal L2 cache that always hit
-gpgpu_cache:dl2     S:32:128:24,L:B:m:L:P,A:192:4,32:0,32 # unified banked L2 data cache config  {<nsets>:<bsize>:<assoc>,<rep>:<wr>:<alloc>:<wr_alloc>,<mshr>:<N>:<merge>,<mq>}
-gpgpu_cache:dl2_texture_only                    0 # L2 cache used for texture only
-gpgpu_n_mem                           32 # number of memory modules (e.g. memory controllers) in gpu
-gpgpu_n_sub_partition_per_mchannel                    2 # number of memory subpartition in each memory module
-gpgpu_n_mem_per_ctrlr                    1 # number of memory chips per memory controller
-gpgpu_memlatency_stat                   14 # track and display latency statistics 0x2 enables MC, 0x4 enables queue logs
-gpgpu_frfcfs_dram_sched_queue_size                   64 # 0 = unlimited (default); # entries per chip
-gpgpu_dram_return_queue_size                  192 # 0 = unlimited (default); # entries per chip
-gpgpu_dram_buswidth                   16 # default = 4 bytes (8 bytes per cycle at DDR)
-gpgpu_dram_burst_length                    2 # Burst length of each DRAM request (default = 4 data bus cycle)
-dram_data_command_freq_ratio                    2 # Frequency ratio between DRAM data bus and command bus (default = 2 times, i.e. DDR)
-gpgpu_dram_timing_opt nbk=16:CCD=1:RRD=3:RCD=12:RAS=28:RP=12:RC=40: CL=12:WL=2:CDLR=3:WR=10:nbkgrp=4:CCDL=2:RTPL=3 # DRAM timing parameters = {nbk:tCCD:tRRD:tRCD:tRAS:tRP:tRC:CL:WL:tCDLR:tWR:nbkgrp:tCCDL:tRTPL}
-gpgpu_l2_rop_latency                  160 # ROP queue latency (default 85)
-dram_latency                         200 # DRAM latency (default 30)
-dram_write_latency                   600 # DRAM write latency (default 100)
-dram_dual_bus_interface                    1 # dual_bus_interface (default = 0) 
-dram_bnk_indexing_policy                    0 # dram_bnk_indexing_policy (0 = normal indexing, 1 = Xoring with the higher bits) (Default = 0)
-dram_bnkgrp_indexing_policy                    1 # dram_bnkgrp_indexing_policy (0 = take higher bits, 1 = take lower bits) (Default = 0)
-dram_seperate_write_queue_enable                    0 # Seperate_Write_Queue_Enable
-dram_write_queue_size             32:28:16 # Write_Queue_Size
-dram_elimnate_rw_turnaround                    0 # elimnate_rw_turnaround i.e set tWTR and tRTW = 0
-icnt_flit_size                        40 # icnt_flit_size
-gpgpu_mem_addr_mapping dramid@8;00000000.00000000.00000000.00000000.0000RRRR.RRRRRRRR.RBBBCCCB.CCCSSSSS # mapping memory address to dram model {dramid@<start bit>;<memory address map>}
-gpgpu_mem_addr_test                    0 # run sweep test to check address mapping for aliased address
-gpgpu_mem_address_mask                    1 # 0 = old addressing mask, 1 = new addressing mask, 2 = new add. mask + flipped bank sel and chip sel bits
-gpgpu_memory_partition_indexing                    0 # 0 = no indexing, 1 = bitwise xoring, 2 = IPoly, 3 = custom indexing
-gpuwattch_xml_file         gpuwattch.xml # GPUWattch XML file
-power_simulation_enabled                    0 # Turn on power simulator (1=On, 0=Off)
-power_per_cycle_dump                    0 # Dump detailed power output each cycle
-power_trace_enabled                    0 # produce a file for the power trace (1=On, 0=Off)
-power_trace_zlevel                     6 # Compression level of the power trace output log (0=no comp, 9=highest)
-steady_power_levels_enabled                    0 # produce a file for the steady power levels (1=On, 0=Off)
-steady_state_definition                  8:4 # allowed deviation:number of samples
-gpgpu_max_cycle                        0 # terminates gpu simulation early (0 = no limit)
-gpgpu_max_insn                         0 # terminates gpu simulation early (0 = no limit)
-gpgpu_max_cta                          0 # terminates gpu simulation early (0 = no limit)
-gpgpu_max_completed_cta                 2700 # terminates gpu simulation early (0 = no limit)
-gpgpu_runtime_stat                   500 # display runtime statistics such as dram utilization {<freq>:<flag>}
-liveness_message_freq                    1 # Minimum number of seconds between simulation liveness messages (0 = always print)
-gpgpu_compute_capability_major                    7 # Major compute capability version number
-gpgpu_compute_capability_minor                    0 # Minor compute capability version number
-gpgpu_flush_l1_cache                    1 # Flush L1 cache at the end of each kernel call
-gpgpu_flush_l2_cache                    0 # Flush L2 cache at the end of each kernel call
-gpgpu_deadlock_detect                    1 # Stop the simulation at deadlock (1=on (default), 0=off)
-gpgpu_ptx_instruction_classification                    0 # if enabled will classify ptx instruction types per kernel (Max 255 kernels now)
-gpgpu_ptx_sim_mode                     0 # Select between Performance (default) or Functional simulation (1)
-gpgpu_clock_domains 1132.0:1132.0:1132.0:850.0 # Clock Domain Frequencies in MhZ {<Core Clock>:<ICNT Clock>:<L2 Clock>:<DRAM Clock>}
-gpgpu_max_concurrent_kernel                    8 # maximum kernels that can run concurrently on GPU
-gpgpu_cflog_interval                    0 # Interval between each snapshot in control flow logger
-visualizer_enabled               48e293453df1fbca85f95b4ef3d81d0c  /home/pli11/Videos/parboil_benchmark/parboil/benchmarks/mri-gridding/build/nvm_ssort_default/mri-gridding
Extracting PTX file and ptxas options    1: mri-gridding.1.sm_70.ptx -arch=sm_70
Extracting PTX file and ptxas options    2: mri-gridding.2.sm_70.ptx -arch=sm_70
      0 # Turn on visualizer output (1=On, 0=Off)
-visualizer_outputfile                 NULL # Specifies the output log file for visualizer
-visualizer_zlevel                      6 # Compression level of the visualizer output log (0=no comp, 9=highest)
-gpgpu_stack_size_limit                 1024 # GPU thread stack size
-gpgpu_heap_size_limit              8388608 # GPU malloc heap size 
-gpgpu_runtime_sync_depth_limit                    2 # GPU device runtime synchronize depth
-gpgpu_runtime_pending_launch_count_limit                 2048 # GPU device runtime pending launch count
-trace_enabled                          0 # Turn on traces
-trace_components                    none # comma seperated list of traces to enable. Complete list found in trace_streams.tup. Default none
-trace_sampling_core                    0 # The core which is printed using CORE_DPRINTF. Default 0
-trace_sampling_memory_partition                   -1 # The memory partition which is printed using MEMPART_DPRINTF. Default -1 (i.e. all)
-enable_ptx_file_line_stats                    1 # Turn on PTX source line statistic profiling. (1 = On)
-ptx_line_stats_filename gpgpu_inst_stats.txt # Output file for PTX source line statistics.
-gpgpu_kernel_launch_latency                 5000 # Kernel launch latency in cycles. Default: 0
-gpgpu_cdp_enabled                      0 # Turn on CDP
-gpgpu_TB_launch_latency                    0 # thread block launch latency in cycles. Default: 0
DRAM Timing Options:
nbk                                    16 # number of banks
CCD                                     1 # column to column delay
RRD                                     3 # minimal delay between activation of rows in different banks
RCD                                    12 # row to column delay
RAS                                    28 # time needed to activate row
RP                                     12 # time needed to precharge (deactivate) row
RC                                     40 # row cycle time
CDLR                                    3 # switching from write to read (changes tWTR)
WR                                     10 # last data-in to row precharge
CL                                     12 # CAS latency
WL                                      2 # Write latency
nbkgrp                                  4 # number of bank groups
CCDL                                    2 # column to column delay between accesses to different bank groups
RTPL                                    3 # read to precharge delay between accesses to different bank groups
Total number of memory sub partition = 64
addr_dec_mask[CHIP]  = 0000000000001f00 	high:13 low:8
addr_dec_mask[BK]    = 00000000000e2000 	high:20 low:13
addr_dec_mask[ROW]   = 00000001fff00000 	high:33 low:20
addr_dec_mask[COL]   = 000000000001c0ff 	high:17 low:0
addr_dec_mask[BURST] = 000000000000001f 	high:5 low:0
sub_partition_id_mask = 0000000000002000
GPGPU-Sim uArch: clock freqs: 1132000000.000000:1132000000.000000:1132000000.000000:850000000.000000
GPGPU-Sim uArch: clock periods: 0.00000000088339222615:0.00000000088339222615:0.00000000088339222615:0.00000000117647058824
*** Initializing Memory Statistics ***
GPGPU-Sim uArch: performance model initialization complete.
self exe links to: /home/pli11/Videos/parboil_benchmark/parboil/benchmarks/mri-gridding/build/nvm_ssort_default/mri-gridding
self exe links to: /home/pli11/Videos/parboil_benchmark/parboil/benchmarks/mri-gridding/build/nvm_ssort_default/mri-gridding
10.1
GPGPU-Sim PTX: __cudaRegisterFatBinary, fat_cubin_handle = 1, filename=default
self exe links to: /home/pli11/Videos/parboil_benchmark/parboil/benchmarks/mri-gridding/build/nvm_ssort_default/mri-gridding
Running md5sum using "md5sum /home/pli11/Videos/parboil_benchmark/parboil/benchmarks/mri-gridding/build/nvm_ssort_default/mri-gridding "
self exe links to: /home/pli11/Videos/parboil_benchmark/parboil/benchmarks/mri-gridding/build/nvm_ssort_default/mri-gridding
Extracting specific PTX file named mri-gridding.1.sm_70.ptx 
Extracting specific PTX file named mri-gridding.2.sm_70.ptx 
EExtracting PTX file and ptxas options    3: mri-gridding.3.sm_70.ptx -arch=sm_70
Extracting PTX file and ptxas options    4: mri-gridding.4.sm_70.ptx -arch=sm_70
xtracting specific PTX file named mri-gridding.3.sm_70.ptx 
Extracting specific PTX file named mri-gridding.4.sm_70.ptx 
self exe links to: /home/pli11/Videos/parboil_benchmark/parboil/benchmarks/mri-gridding/build/nvm_ssort_default/mri-gridding
self exe links to: /home/pli11/Videos/parboil_benchmark/parboil/benchmarks/mri-gridding/build/nvm_ssort_default/mri-gridding
10.1
GPGPU-Sim PTX: __cudaRegisterFatBinary, fat_cubin_handle = 2, filename=default
GPGPU-Sim PTX: __cudaRegisterFunction _Z17gridding_GPU_nvmbP20ReconstructionSamplePjP6float2Pff : hostFun 0x0x404c94, fat_cubin_handle = 2
GPGPU-Sim PTX: Parsing mri-gridding.1.sm_70.ptx
GPGPU-Sim PTX: finished parsing EMBEDDED .ptx file mri-gridding.1.sm_70.ptx
GPGPU-Sim PTX: Parsing mri-gridding.2.sm_70.ptx
GPGPU-Sim PTX: allocating constant region for "cutoff2_c" from 0x100 to 0x104 (global memory space) 1
GPGPU-Sim PTX: allocating constant region for "cutoff_c" from 0x104 to 0x108 (global memory space) 2
GPGPU-Sim PTX: allocating constant region for "gridSize_c" from 0x180 to 0x18c (global memory space) 3
GPGPU-Sim PTX: allocating constant region for "size_xy_c" from 0x18c to 0x190 (global memory space) 4
GPGPU-Sim PTX: allocating constant region for "_1overCutoff2_c" from 0x190 to 0x194 (global memory space) 5
GPGPU-Sim PTX: allocating global region for "NVM_log" from 0x200 to 0x4000200 (global memory space)
GPGPU-Sim PTX: allocating global region for "NVM_flag" from 0x4000200 to 0x4400200 (global memory space)
GPGPU-Sim PTX: instruction assembly for function '_Z14binning_kerneljP20ReconstructionSamplePjS1_S1_jj'...   done.
GPGPU-Sim PTX: instruction assembly for function '_Z19binning_kernel_nvmbjP20ReconstructionSamplePjS1_S1_jj'...   done.
GPGPU-Sim PTX: instruction assembly for function '_Z19binning_kernel_nvmdjP20ReconstructionSamplePjS1_S1_jj'...   done.
GPGPU-Sim PTX: instruction assembly for function '_Z14reorder_kerneliPjP20ReconstructionSampleS1_'...   done.
GPGPU-Sim PTX: instruction assembly for function '_Z19reorder_kernel_nvmaiPjP20ReconstructionSampleS1_'...   done.
GPGPU-Sim PTX: instruction assembly for function '_Z19reorder_kernel_nvmbiPjP20ReconstructionSampleS1_'...   done.
GPGPU-Sim PTX: instruction assembly for function '_Z19reorder_kernel_nvmdiPjP20ReconstructionSampleS1_'...   done.
GPGPU-Sim PTX: instruction assembly for function '_Z19reorder_kernel_nvmgiPjP20ReconstructionSampleS1_'...   done.
GPGPU-Sim PTX: instruction assembly for function '_Z19reorder_kernel_nvmiiPjP20ReconstructionSampleS1_'...   done.
GPGPU-Sim PTX: allocating shared region for "_ZZ12gridding_GPUP20ReconstructionSamplePjP6float2PffE9sharedBin" from 0x0 to 0x600 (shared memory space)
GPGPU-Sim PTX: instruction assembly for function '_Z12gridding_GPUP20ReconstructionSamplePjP6float2Pff'...   done.
GPGPU-Sim PTX: allocating stack frame region for .local "__local_depot10" from 0x0 to 0x8
GPGPU-Sim PTX: allocating shared region for "_ZZ17gridding_GPU_nvmaP20ReconstructionSamplePjP6float2PffE9sharedBin" from 0x0 to 0x600 (shared memory space)
GPGPU-Sim PTX: instruction assembly for function '_Z17gridding_GPU_nvmaP20ReconstructionSamplePjP6float2Pff'...   done.
GPGPU-Sim PTX: allocating stack frame region for .local "__local_depot11" from 0x0 to 0x8
GPGPU-Sim PTX: allocating shared region for "_ZZ17gridding_GPU_nvmbP20ReconstructionSamplePjP6float2PffE9sharedBin" from 0x0 to 0x600 (shared memory space)
GPGPU-Sim PTX: instruction assembly for function '_Z17gridding_GPU_nvmbP20ReconstructionSamplePjP6float2Pff'...   done.
GPGPU-Sim PTX: finished parsing EMBEDDED .ptx file mri-gridding.2.sm_70.ptx
GPGPU-Sim PTX: Parsing mri-gridding.3.sm_70.ptx
GPGPU-Sim PTX: allocating shared region for "s_data" from 0x0 to 0x0 (shared memory space)
GPGPU-Sim PTX: allocating shared region for "_ZZ14scan_L1_kerneljPjS_E6s_data" from 0x0 to 0x1110 (shared memory space)
GPGPU-Sim PTX: instruction assembly for function '_Z14scan_L1_kerneljPjS_'...   done.
GPGPU-Sim PTX: instruction assembly for function '_Z18scan_inter1_kernelPjj'...   done.
GPGPU-Sim PTX: instruction assembly for function '_Z18scan_inter2_kernelPjj'...   done.
GPGPU-Sim PTX: allocating shared region for "_ZZ10uniformAddjPjS_E3uni" from 0x0 to 0x4 (shared memory space)
GPGPU-Sim PTX: instruction assembly for function '_Z10uniformAddjPjS_'...   done.
GPGPU-Sim PTX: finished parsing EMBEDDED .ptx file mri-gridding.3.sm_70.ptx
GPGPU-Sim PTX: Parsing mri-gridding.4.sm_70.ptx
GPGPU-Sim PTX: allocating global region for "NVM_log1" from 0x4400200 to 0x8400200 (global memory space)
GPGPU-Sim PTX: allocating global region for "NVM_log2" from 0x8400200 to 0xc400200 (global memory space)
GPGPU-Sim PTX: allocating global region for "NVM_log3" from 0xc400200 to 0x10400200 (global memory space)
GPGPU-Sim PTX: Warning NVM_flag was declared previous at mri-gridding.2.sm_70.ptx:20 skipping new declaration
GPGPU-Sim PTX: allocating shared region for "_ZZ9splitSortiiPjS_S_E5flags" from 0x0 to 0x1144 (shared memory space)
GPGPU-Sim PTX: allocating shared region for "_ZZ9splitSortiiPjS_S_E7histo_s" from 0x1180 to 0x11c0 (shared memory space)
GPGPU-Sim PTX: instruction assembly for function '_Z9splitSortiiPjS_S_'...   done.
GPGPU-Sim PTX: allocating shared region for "_ZZ14splitSort_nvmoiiPjS_S_E5flags" from 0x0 to 0x1144 (shared memory space)
GPGPU-Sim PTX: allocating shared region for "_ZZ14splitSort_nvmoiiPjS_S_E7histo_s" from 0x1180 to 0x11c0 (shared memory space)
GPGPU-Sim PTX: instruction assembly for function '_Z14splitSort_nvmoiiPjS_S_'...   done.
GPGPU-Sim PTX: allocating shared region for "_ZZ14splitSort_nvmqiiPjS_S_E5flags" from 0x0 to 0x1144 (shared memory space)
GPGPU-Sim PTX: allocating shared region for "_ZZ14splitSort_nvmqiiPjS_S_E7histo_s" from 0x1180 to 0x11c0 (shared memory space)
GPGPU-Sim PTX: instruction assembly for function '_Z14splitSort_nvmqiiPjS_S_'...   done.
GPGPU-Sim PTX: allocating shared region for "_ZZ14splitSort_nvmuiiPjS_S_E5flags" from 0x0 to 0x1144 (shared memory space)
GPGPU-Sim PTX: allocating shared region for "_ZZ14splitSort_nvmuiiPjS_S_E7histo_s" from 0x1180 to 0x11c0 (shared memory space)
GPGPU-Sim PTX: instruction assembly for function '_Z14splitSort_nvmuiiPjS_S_'...   done.
GPGPU-Sim PTX: allocating shared region for "_ZZ14splitSort_nvmwiiPjS_S_E5flags" from 0x0 to 0x1144 (shared memory space)
GPGPU-Sim PTX: allocating shared region for "_ZZ14splitSort_nvmwiiPjS_S_E7histo_s" from 0x1180 to 0x11c0 (shared memory space)
GPGPU-Sim PTX: instruction assembly for function '_Z14splitSort_nvmwiiPjS_S_'...   done.
GPGPU-Sim PTX: allocating shared region for "_ZZ14splitSort_nvm1iiPjS_S_E5flags" from 0x0 to 0x1144 (shared memory space)
GPGPU-Sim PTX: allocating shared region for "_ZZ14splitSort_nvm1iiPjS_S_E7histo_s" from 0x1180 to 0x11c0 (shared memory space)
GPGPU-Sim PTX: instruction assembly for function '_Z14splitSort_nvm1iiPjS_S_'...   done.
GPGPU-Sim PTX: allocating shared region for "_ZZ14splitSort_nvm2iiPjS_S_E5flags" from 0x0 to 0x1144 (shared memory space)
GPGPU-Sim PTX: allocating shared region for "_ZZ14splitSort_nvm2iiPjS_S_E7histo_s" from 0x1180 to 0x11c0 (shared memory space)
GPGPU-Sim PTX: instruction assembly for function '_Z14splitSort_nvm2iiPjS_S_'...   done.
GPGPU-Sim PTX: allocating shared region for "_ZZ14splitSort_nvmbiiPjS_S_E5flags" from 0x0 to 0x1144 (shared memory space)
GPGPU-Sim PTX: allocating shared region for "_ZZ14splitSort_nvmbiiPjS_S_E7histo_s" from 0x1180 to 0x11c0 (shared memory space)
GPGPU-Sim PTX: instruction assembly for function '_Z14splitSort_nvmbiiPjS_S_'...   done.
GPGPU-Sim PTX: allocating shared region for "_ZZ14splitSort_nvmdiiPjS_S_E5flags" from 0x0 to 0x1144 (shared memory space)
GPGPU-Sim PTX: allocating shared region for "_ZZ14splitSort_nvmdiiPjS_S_E7histo_s" from 0x1180 to 0x11c0 (shared memory space)
GPGPU-Sim PTX: instruction assembly for function '_Z14splitSort_nvmdiiPjS_S_'...   done.
GPGPU-Sim PTX: allocating shared region for "_ZZ19splitRearrange_nvmbiiPjS_S_S_S_E7histo_s" from 0x0 to 0x40 (shared memory space)
GPGPU-Sim PTX: allocating shared region for "_ZZ19splitRearrange_nvmbiiPjS_S_S_S_E7array_s" from 0x80 to 0x1080 (shared memory space)
GPGPU-Sim PTX: instruction assembly for function '_Z19splitRearrange_nvmbiiPjS_S_S_S_'...   done.
GPGPU-Sim PTX: allocating shared region for "_ZZ19splitRearrange_nvmdiiPjS_S_S_S_E7histo_s" from 0x0 to 0x40 (shared memory space)
GPGPU-Sim PTX: allocating shared region for "_ZZ19splitRearrange_nvmdiiPjS_S_S_S_E7array_s" from 0x80 to 0x1080 (shared memory space)
GPGPU-Sim PTX: instruction assembly for function '_Z19splitRearrange_nvmdiiPjS_S_S_S_'...   done.
GPGPU-Sim PTX: allocating shared region for "_ZZ19splitRearrange_nvmoiiPjS_S_S_S_E7histo_s" from 0x0 to 0x40 (shared memory space)
GPGPU-Sim PTX: allocating shared region for "_ZZ19splitRearrange_nvmoiiPjS_S_S_S_E7array_s" from 0x80 to 0x1080 (shared memory space)
GPGPU-Sim PTX: instruction assembly for function '_Z19splitRearrange_nvmoiiPjS_S_S_S_'...   done.
GPGPU-Sim PTX: allocating shared region for "_ZZ19splitRearrange_nvmqiiPjS_S_S_S_E7histo_s" from 0x0 to 0x40 (shared memory space)
GPGPU-Sim PTX: allocating shared region for "_ZZ19splitRearrange_nvmqiiPjS_S_S_S_E7array_s" from 0x80 to 0x1080 (shared memory space)
GPGPU-Sim PTX: instruction assembly for function '_Z19splitRearrange_nvmqiiPjS_S_S_S_'...   done.
GPGPU-Sim PTX: allocating shared region for "_ZZ19splitRearrange_nvmuiiPjS_S_S_S_E7histo_s" from 0x0 to 0x40 (shared memory space)
GPGPU-Sim PTX: allocating shared region for "_ZZ19splitRearrange_nvmuiiPjS_S_S_S_E7array_s" from 0x80 to 0x1080 (shared memory space)
GPGPU-Sim PTX: instruction assembly for function '_Z19splitRearrange_nvmuiiPjS_S_S_S_'...   done.
GPGPU-Sim PTX: allocating shared region for "_ZZ19splitRearrange_nvmwiiPjS_S_S_S_E7histo_s" from 0x0 to 0x40 (shared memory space)
GPGPU-Sim PTX: allocating shared region for "_ZZ19splitRearrange_nvmwiiPjS_S_S_S_E7array_s" from 0x80 to 0x1080 (shared memory space)
GPGPU-Sim PTX: instruction assembly for function '_Z19splitRearrange_nvmwiiPjS_S_S_S_'...   done.
GPGPU-Sim PTX: allocating shared region for "_ZZ19splitRearrange_nvm1iiPjS_S_S_S_E7histo_s" from 0x0 to 0x40 (shared memory space)
GPGPU-Sim PTX: allocating shared region for "_ZZ19splitRearrange_nvm1iiPjS_S_S_S_E7array_s" from 0x80 to 0x1080 (shared memory space)
GPGPU-Sim PTX: instruction assembly for function '_Z19splitRearrange_nvm1iiPjS_S_S_S_'...   done.
GPGPU-Sim PTX: allocating shared region for "_ZZ19splitRearrange_nvm2iiPjS_S_S_S_E7histo_s" from 0x0 to 0x40 (shared memory space)
GPGPU-Sim PTX: allocating shared region for "_ZZ19splitRearrange_nvm2iiPjS_S_S_S_E7array_s" from 0x80 to 0x1080 (shared memory space)
GPGPU-Sim PTX: instruction assembly for function '_Z19splitRearrange_nvm2iiPjS_S_S_S_'...   done.
GPGPU-Sim PTX: allocating shared region for "_ZZ14splitSort_nvmgiiPjS_S_E5flags" from 0x0 to 0x1144 (shared memory space)
GPGPU-Sim PTX: allocating shared region for "_ZZ14splitSort_nvmgiiPjS_S_E7histo_s" from 0x1180 to 0x11c0 (shared memory space)
GPGPU-Sim PTX: instruction assembly for function '_Z14splitSort_nvmgiiPjS_S_'...   done.
GPGPU-Sim PTX: allocating shared region for "_ZZ14splitSort_nvm3iiPjS_S_E5flags" from 0x0 to 0x1144 (shared memory space)
GPGPU-Sim PTX: allocating shared region for "_ZZ14splitSort_nvm3iiPjS_S_E7histo_s" from 0x1180 to 0x11c0 (shared memory space)
GPGPU-Sim PTX: instruction assembly for function '_Z14splitSort_nvm3iiPjS_S_'...   done.
GPGPU-Sim PTX: allocating shared region for "_ZZ14splitSort_nvm4iiPjS_S_E5flags" from 0x0 to 0x1144 (shared memory space)
GPGPU-Sim PTX: allocating shared region for "_ZZ14splitSort_nvm4iiPjS_S_E7histo_s" from 0x1180 to 0x11c0 (shared memory space)
GPGPU-Sim PTX: instruction assembly for function '_Z14splitSort_nvm4iiPjS_S_'...   done.
GPGPU-Sim PTX: allocating shared region for "_ZZ14splitSort_nvmiiiPjS_S_E5flags" from 0x0 to 0x1144 (shared memory space)
GPGPU-Sim PTX: allocating shared region for "_ZZ14splitSort_nvmiiiPjS_S_E7histo_s" from 0x1180 to 0x11c0 (shared memory space)
GPGPU-Sim PTX: instruction assembly for function '_Z14splitSort_nvmiiiPjS_S_'...   done.
GPGPU-Sim PTX: allocating shared region for "_ZZ14splitSort_nvm5iiPjS_S_E5flags" from 0x0 to 0x1144 (shared memory space)
GPGPU-Sim PTX: allocating shared region for "_ZZ14splitSort_nvm5iiPjS_S_E7histo_s" from 0x1180 to 0x11c0 (shared memory space)
GPGPU-Sim PTX: instruction assembly for function '_Z14splitSort_nvm5iiPjS_S_'...   done.
GPGPU-Sim PTX: allocating shared region for "_ZZ14splitSort_nvm6iiPjS_S_E5flags" from 0x0 to 0x1144 (shared memory space)
GPGPU-Sim PTX: allocating shared region for "_ZZ14splitSort_nvm6iiPjS_S_E7histo_s" from 0x1180 to 0x11c0 (shared memory space)
GPGPU-Sim PTX: instruction assembly for function '_Z14splitSort_nvm6iiPjS_S_'...   done.
GPGPU-Sim PTX: allocating shared region for "_ZZ19splitRearrange_nvmgiiPjS_S_S_S_E7histo_s" from 0x0 to 0x40 (shared memory space)
GPGPU-Sim PTX: allocating shared region for "_ZZ19splitRearrange_nvmgiiPjS_S_S_S_E7array_s" from 0x80 to 0x1080 (shared memory space)
GPGPU-Sim PTX: instruction assembly for function '_Z19splitRearrange_nvmgiiPjS_S_S_S_'...   done.
GPGPU-Sim PTX: allocating shared region for "_ZZ19splitRearrange_nvm3iiPjS_S_S_S_E7histo_s" from 0x0 to 0x40 (shared memory space)
GPGPU-Sim PTX: allocating shared region for "_ZZ19splitRearrange_nvm3iiPjS_S_S_S_E7array_s" from 0x80 to 0x1080 (shared memory space)
GPGPU-Sim PTX: instruction assembly for function '_Z19splitRearrange_nvm3iiPjS_S_S_S_'...   done.
GPGPU-Sim PTX: allocating shared region for "_ZZ19splitRearrange_nvm4iiPjS_S_S_S_E7histo_s" from 0x0 to 0x40 (shared memory space)
GPGPU-Sim PTX: allocating shared region for "_ZZ19splitRearrange_nvm4iiPjS_S_S_S_E7array_s" from 0x80 to 0x1080 (shared memory space)
GPGPU-Sim PTX: instruction assembly for function '_Z19splitRearrange_nvm4iiPjS_S_S_S_'...   done.
GPGPU-Sim PTX: allocating shared region for "_ZZ19splitRearrange_nvmiiiPjS_S_S_S_E7histo_s" from 0x0 to 0x40 (shared memory space)
GPGPU-Sim PTX: allocating shared region for "_ZZ19splitRearrange_nvmiiiPjS_S_S_S_E7array_s" from 0x80 to 0x1080 (shared memory space)
GPGPU-Sim PTX: instruction assembly for function '_Z19splitRearrange_nvmiiiPjS_S_S_S_'...   done.
GPGPU-Sim PTX: allocating shared region for "_ZZ19splitRearrange_nvm6iiPjS_S_S_S_E7histo_s" from 0x0 to 0x40 (shared memory space)
GPGPU-Sim PTX: allocating shared region for "_ZZ19splitRearrange_nvm6iiPjS_S_S_S_E7array_s" from 0x80 to 0x1080 (shared memory space)
GPGPU-Sim PTX: instruction assembly for function '_Z19splitRearrange_nvm6iiPjS_S_S_S_'...   done.
GPGPU-Sim PTX: allocating shared region for "_ZZ19splitRearrange_nvm5iiPjS_S_S_S_E7histo_s" from 0x0 to 0x40 (shared memory space)
GPGPU-Sim PTX: allocating shared region for "_ZZ19splitRearrange_nvm5iiPjS_S_S_S_E7array_s" from 0x80 to 0x1080 (shared memory space)
GPGPU-Sim PTX: instruction assembly for function '_Z19splitRearrange_nvm5iiPjS_S_S_S_'...   done.
GPGPU-Sim PTX: allocating shared region for "_ZZ14splitRearrangeiiPjS_S_S_S_E7histo_s" from 0x0 to 0x40 (shared memory space)
GPGPU-Sim PTX: allocating shared region for "_ZZ14splitRearrangeiiPjS_S_S_S_E7array_s" from 0x80 to 0x1080 (shared memory space)
GPGPU-Sim PTX: instruction assembly for function '_Z14splitRearrangeiiPjS_S_S_S_'...   done.
GPGPU-Sim PTX: finished parsing EMBEDDED .ptx file mri-gridding.4.sm_70.ptx
GPGPU-Sim PTX: loading globals with explicit initializers... 
GPGPU-Sim PTX: finished loading globals (0 bytes total).
GPGPU-Sim PTX: loading constants with explicit initializers...  done.
GPGPU-Sim PTX: Loading PTXInfo from mri-gridding.1.sm_70.ptx
GPGPU-Sim PTX: Loading PTXInfo from mri-gridding.2.sm_70.ptx
GPGPU-Sim PTX: Binary info : gmem=71303168, cmem=28
GPGPU-Sim PTX: Kernel '_Z17gridding_GPU_nvmbP20ReconstructionSamplePjP6float2Pff' : regs=40, lmem=0, smem=1536, cmem=388
GPGPU-Sim PTX: Kernel '_Z17gridding_GPU_nvmaP20ReconstructionSamplePjP6float2Pff' : regs=40, lmem=0, smem=1536, cmem=388
GPGPU-Sim PTX: Kernel '_Z12gridding_GPUP20ReconstructionSamplePjP6float2Pff' : regs=39, lmem=0, smem=1536, cmem=388
GPGPU-Sim PTX: Kernel '_Z19reorder_kernel_nvmiiPjP20ReconstructionSampleS1_' : regs=24, lmem=0, smem=0, cmem=384
GPGPU-Sim PTX: Kernel '_Z19reorder_kernel_nvmgiPjP20ReconstructionSampleS1_' : regs=24, lmem=0, smem=0, cmem=384
GPGPU-Sim PTX: Kernel '_Z19reorder_kernel_nvmdiPjP20ReconstructionSampleS1_' : regs=22, lmem=0, smem=0, cmem=384
GPGPU-Sim PTX: Kernel '_Z19reorder_kernel_nvmbiPjP20ReconstructionSampleS1_' : regs=22, lmem=0, smem=0, cmem=384
GPGPU-Sim PTX: Kernel '_Z19reorder_kernel_nvmaiPjP20ReconstructionSampleS1_' : regs=22, lmem=0, smem=0, cmem=384
GPGPU-Sim PTX: Kernel '_Z14reorder_kerneliPjP20ReconstructionSampleS1_' : regs=22, lmem=0, smem=0, cmem=384
GPGPU-Sim PTX: Kernel '_Z19binning_kernel_nvmdjP20ReconstructionSamplePjS1_S1_jj' : regs=16, lmem=0, smem=0, cmem=400
GPGPU-Sim PTX: Kernel '_Z19binning_kernel_nvmbjP20ReconstructionSamplePjS1_S1_jj' : regs=16, lmem=0, smem=0, cmem=400
GPGPU-Sim PTX: Kernel '_Z14binning_kerneljP20ReconstructionSamplePjS1_S1_jj' : regs=16, lmem=0, smem=0, cmem=400
GPGPU-Sim PTX: Loading PTXInfo from mri-gridding.3.sm_70.ptx
GPGPU-Sim PTX: Kernel '_Z10uniformAddjPjS_' : regs=8, lmem=0, smem=16, cmem=376
GPGPU-Sim PTX: Kernel '_Z18scan_inter2_kernelPjj' : regs=19, lmem=0, smem=0, cmem=364
GPGPU-Sim PTX: Kernel '_Z18scan_inter1_kernelPjj' : regs=20, lmem=0, smem=0, cmem=364
GPGPU-Sim PTX: Kernel '_Z14scan_L1_kerneljPjS_' : regs=22, lmem=0, smem=4368, cmem=376
GPGPU-Sim PTX: Loading PTXInfo from mri-gridding.4.sm_70.ptx
GPGPU-Sim PTX: Kernel '_Z14splitRearrangeiiPjS_S_S_S_' : regs=28, lmem=0, smem=4160, cmem=400
GPGPU-Sim PTX: Kernel '_Z19splitRearrange_nvm5iiPjS_S_S_S_' : regs=28, lmem=0, smem=4160, cmem=400
GPGPU-Sim PTX: Kernel '_Z19splitRearrange_nvm6iiPjS_S_S_S_' : regs=28, lmem=0, smem=4160, cmem=400
GPGPU-Sim PTX: Kernel '_Z19splitRearrange_nvmiiiPjS_S_S_S_' : regs=30, lmem=0, smem=4160, cmem=400
GPGPU-Sim PTX: Kernel '_Z19splitRearrange_nvm4iiPjS_S_S_S_' : regs=32, lmem=0, smem=4160, cmem=400
GPGPU-Sim PTX: Kernel '_Z19splitRearrange_nvm3iiPjS_S_S_S_' : regs=32, lmem=0, smem=4160, cmem=400
GPGPU-Sim PTX: Kernel '_Z19splitRearrange_nvmgiiPjS_S_S_S_' : regs=32, lmem=0, smem=4160, cmem=400
GPGPU-Sim PTX: Kernel '_Z14splitSort_nvm6iiPjS_S_' : regs=48, lmem=0, smem=4484, cmem=384
GPGPU-Sim PTX: Kernel '_Z14splitSort_nvm5iiPjS_S_' : regs=48, lmem=0, smem=4484, cmem=384
GPGPU-Sim PTX: Kernel '_Z14splitSort_nvmiiiPjS_S_' : regs=48, lmem=0, smem=4484, cmem=384
GPGPU-Sim PTX: Kernel '_Z14splitSort_nvm4iiPjS_S_' : regs=48, lmem=0, smem=4484, cmem=384
GPGPU-Sim PTX: Kernel '_Z14splitSort_nvm3iiPjS_S_' : regs=48, lmem=0, smem=4484, cmem=384
GPGPU-Sim PTX: Kernel '_Z14splitSort_nvmgiiPjS_S_' : regs=43, lmem=0, smem=4484, cmem=384
GPGPU-Sim PTX: Kernel '_Z19splitRearrange_nvm2iiPjS_S_S_S_' : regs=30, lmem=0, smem=4160, cmem=400
GPGPU-Sim PTX: Kernel '_Z19splitRearrange_nvm1iiPjS_S_S_S_' : regs=30, lmem=0, smem=4160, cmem=400
GPGPU-Sim PTX: Kernel '_Z19splitRearrange_nvmwiiPjS_S_S_S_' : regs=28, lmem=0, smem=4160, cmem=400
GPGPU-Sim PTX: Kernel '_Z19splitRearrange_nvmuiiPjS_S_S_S_' : regs=26, lmem=0, smem=4160, cmem=400
GPGPU-Sim PTX: Kernel '_Z19splitRearrange_nvmqiiPjS_S_S_S_' : regs=28, lmem=0, smem=4160, cmem=400
GPGPU-Sim PTX: Kernel '_Z19splitRearrange_nvmoiiPjS_S_S_S_' : regs=26, lmem=0, smem=4160, cmem=400
GPGPU-Sim PTX: Kernel '_Z19splitRearrange_nvmdiiPjS_S_S_S_' : regs=28, lmem=0, smem=4160, cmem=400
GPGPU-Sim PTX: Kernel '_Z19splitRearrange_nvmbiiPjS_S_S_S_' : regs=26, lmem=0, smem=4160, cmem=400
GPGPU-Sim PTX: Kernel '_Z14splitSort_nvmdiiPjS_S_' : regs=43, lmem=0, smem=4484, cmem=384
GPGPU-Sim PTX: Kernel '_Z14splitSort_nvmbiiPjS_S_' : regs=43, lmem=0, smem=4484, cmem=384
GPGPU-Sim PTX: Kernel '_Z14splitSort_nvm2iiPjS_S_' : regs=43, lmem=0, smem=4484, cmem=384
GPGPU-Sim PTX: Kernel '_Z14splitSort_nvm1iiPjS_S_' : regs=43, lmem=0, smem=4484, cmem=384
GPGPU-Sim PTX: Kernel '_Z14splitSort_nvmwiiPjS_S_' : regs=43, lmem=0, smem=4484, cmem=384
GPGPU-Sim PTX: Kernel '_Z14splitSort_nvmuiiPjS_S_' : regs=43, lmem=0, smem=4484, cmem=384
GPGPU-Sim PTX: Kernel '_Z14splitSort_nvmqiiPjS_S_' : regs=43, lmem=0, smem=4484, cmem=384
GPGPU-Sim PTX: Kernel '_Z14splitSort_nvmoiiPjS_S_' : regs=43, lmem=0, smem=4484, cmem=384
GPGPU-Sim PTX: Kernel '_Z9splitSortiiPjS_S_' : regs=43, lmem=0, smem=4484, cmem=384
GPGPU-Sim PTX: __cudaRegisterFunction _Z17gridding_GPU_nvmaP20ReconstructionSamplePjP6float2Pff : hostFun 0x0x404aee, fat_cubin_handle = 2
GPGPU-Sim PTX: __cudaRegisterFunction _Z12gridding_GPUP20ReconstructionSamplePjP6float2Pff : hostFun 0x0x404948, fat_cubin_handle = 2
GPGPU-Sim PTX: __cudaRegisterFunction _Z19reorder_kernel_nvmiiPjP20ReconstructionSampleS1_ : hostFun 0x0x4047b2, fat_cubin_handle = 2
GPGPU-Sim PTX: __cudaRegisterFunction _Z19reorder_kernel_nvmgiPjP20ReconstructionSampleS1_ : hostFun 0x0x40463d, fat_cubin_handle = 2
GPGPU-Sim PTX: __cudaRegisterFunction _Z19reorder_kernel_nvmdiPjP20ReconstructionSampleS1_ : hostFun 0x0x4044c8, fat_cubin_handle = 2
GPGPU-Sim PTX: __cudaRegisterFunction _Z19reorder_kernel_nvmbiPjP20ReconstructionSampleS1_ : hostFun 0x0x404353, fat_cubin_handle = 2
GPGPU-Sim PTX: __cudaRegisterFunction _Z19reorder_kernel_nvmaiPjP20ReconstructionSampleS1_ : hostFun 0x0x4041de, fat_cubin_handle = 2
GPGPU-Sim PTX: __cudaRegisterFunction _Z14reorder_kerneliPjP20ReconstructionSampleS1_ : hostFun 0x0x404069, fat_cubin_handle = 2
GPGPU-Sim PTX: __cudaRegisterFunction _Z19binning_kernel_nvmdjP20ReconstructionSamplePjS1_S1_jj : hostFun 0x0x403ede, fat_cubin_handle = 2
GPGPU-Sim PTX: __cudaRegisterFunction _Z19binning_kernel_nvmbjP20ReconstructionSamplePjS1_S1_jj : hostFun 0x0x403ce5, fat_cubin_handle = 2
GPGPU-Sim PTX: __cudaRegisterFunction _Z14binning_kerneljP20ReconstructionSamplePjS1_S1_jj : hostFun 0x0x403aec, fat_cubin_handle = 2
GPGPU-Sim PTX: __cudaRegisterVar: hostVar = 0x61c470; deviceAddress = cutoff2_c; deviceName = cutoff2_c
GPGPU-Sim PTX: __cudaRegisterVar: Registering const memory space of 4 bytes
GPGPU-Sim PTX registering constant cutoff2_c (4 bytes) to name mapping
GPGPU-Sim PTX: __cudaRegisterVar: hostVar = 0x61c474; deviceAddress = cutoff_c; deviceName = cutoff_c
GPGPU-Sim PTX: __cudaRegisterVar: Registering const memory space of 4 bytes
GPGPU-Sim PTX registering constant cutoff_c (4 bytes) to name mapping
GPGPU-Sim PTX: __cudaRegisterVar: hostVar = 0x61c478; deviceAddress = gridSize_c; deviceName = gridSize_c
GPGPU-Sim PTX: __cudaRegisterVar: Registering const memory space of 12 bytes
GPGPU-Sim PTX registering constant gridSize_c (12 bytes) to name mapping
GPGPU-Sim PTX: __cudaRegisterVar: hostVar = 0x61c484; deviceAddress = size_xy_c; deviceName = size_xy_c
GPGPU-Sim PTX: __cudaRegisterVar: Registering const memory space of 4 bytes
GPGPU-Sim PTX registering constant size_xy_c (4 bytes) to name mapping
GPGPU-Sim PTX: __cudaRegisterVar: hostVar = 0x61c488; deviceAddress = _1overCutoff2_c; deviceName = _1overCutoff2_c
GPGPU-Sim PTX: __cudaRegisterVar: Registering const memory space of 4 bytes
GPGPU-Sim PTX registering constant _1overCutoff2_c (4 bytes) to name mapping
GPGPU-Sim PTX: __cudaRegisterVar: hostVar = 0x61c4a0; deviceAddress = NVM_log; deviceName = NVM_log
GPGPU-Sim PTX: __cudaRegisterVar: Registering const memory space of 67108864 bytes
GPGPU-Sim PTX registering global NVM_log hostVar to name mapping
GPGPU-Sim PTX: __cudaRegisterVar: hostVar = 0x461c4a0; deviceAddress = NVM_flag; deviceName = NVM_flag
GPGPU-Sim PTX: __cudaRegisterVar: Registering const memory space of 4194304 bytes
GPGPU-Sim PTX registering global NVM_flag hostVar to name mapping
self exe links to: /home/pli11/Videos/parboil_benchmark/parboil/benchmarks/mri-gridding/build/nvm_ssort_default/mri-gridding
self exe links to: /home/pli11/Videos/parboil_benchmark/parboil/benchmarks/mri-gridding/build/nvm_ssort_default/mri-gridding
10.1
GPGPU-Sim PTX: __cudaRegisterFatBinary, fat_cubin_handle = 3, filename=default
GPGPU-Sim PTX: __cudaRegisterFunction _Z10uniformAddjPjS_ : hostFun 0x0x405ec1, fat_cubin_handle = 3
GPGPU-Sim PTX: __cudaRegisterFunction _Z18scan_inter2_kernelPjj : hostFun 0x0x405d6f, fat_cubin_handle = 3
GPGPU-Sim PTX: __cudaRegisterFunction _Z18scan_inter1_kernelPjj : hostFun 0x0x405c33, fat_cubin_handle = 3
GPGPU-Sim PTX: __cudaRegisterFunction _Z14scan_L1_kerneljPjS_ : hostFun 0x0x405aef, fat_cubin_handle = 3
self exe links to: /home/pli11/Videos/parboil_benchmark/parboil/benchmarks/mri-gridding/build/nvm_ssort_default/mri-gridding
self exe links to: /home/pli11/Videos/parboil_benchmark/parboil/benchmarks/mri-gridding/build/nvm_ssort_default/mri-gridding
10.1
GPGPU-Sim PTX: __cudaRegisterFatBinary, fat_cubin_handle = 4, filename=default
GPGPU-Sim PTX: __cudaRegisterFunction _Z14splitRearrangeiiPjS_S_S_S_ : hostFun 0x0x40a3f5, fat_cubin_handle = 4
GPGPU-Sim PTX: __cudaRegisterFunction _Z19splitRearrange_nvm5iiPjS_S_S_S_ : hostFun 0x0x40a1fd, fat_cubin_handle = 4
GPGPU-Sim PTX: __cudaRegisterFunction _Z19splitRearrange_nvm6iiPjS_S_S_S_ : hostFun 0x0x40a005, fat_cubin_handle = 4
GPGPU-Sim PTX: __cudaRegisterFunction _Z19splitRearrange_nvmiiiPjS_S_S_S_ : hostFun 0x0x409e0d, fat_cubin_handle = 4
GPGPU-Sim PTX: __cudaRegisterFunction _Z19splitRearrange_nvm4iiPjS_S_S_S_ : hostFun 0x0x409c15, fat_cubin_handle = 4
GPGPU-Sim PTX: __cudaRegisterFunction _Z19splitRearrange_nvm3iiPjS_S_S_S_ : hostFun 0x0x409a1d, fat_cubin_handle = 4
GPGPU-Sim PTX: __cudaRegisterFunction _Z19splitRearrange_nvmgiiPjS_S_S_S_ : hostFun 0x0x409825, fat_cubin_handle = 4
GPGPU-Sim PTX: __cudaRegisterFunction _Z14splitSort_nvm6iiPjS_S_ : hostFun 0x0x40963a, fat_cubin_handle = 4
GPGPU-Sim PTX: __cudaRegisterFunction _Z14splitSort_nvm5iiPjS_S_ : hostFun 0x0x4094a4, fat_cubin_handle = 4
GPGPU-Sim PTX: __cudaRegisterFunction _Z14splitSort_nvmiiiPjS_S_ : hostFun 0x0x40930e, fat_cubin_handle = 4
GPGPU-Sim PTX: __cudaRegisterFunction _Z14splitSort_nvm4iiPjS_S_ : hostFun 0x0x409178, fat_cubin_handle = 4
GPGPU-Sim PTX: __cudaRegisterFunction _Z14splitSort_nvm3iiPjS_S_ : hostFun 0x0x408fe2, fat_cubin_handle = 4
GPGPU-Sim PTX: __cudaRegisterFunction _Z14splitSort_nvmgiiPjS_S_ : hostFun 0x0x408e4c, fat_cubin_handle = 4
GPGPU-Sim PTX: __cudaRegisterFunction _Z19splitRearrange_nvm2iiPjS_S_S_S_ : hostFun 0x0x408ca9, fat_cubin_handle = 4
GPGPU-Sim PTX: __cudaRegisterFunction _Z19splitRearrange_nvm1iiPjS_S_S_S_ : hostFun 0x0x408ab1, fat_cubin_handle = 4
GPGPU-Sim PTX: __cudaRegisterFunction _Z19splitRearrange_nvmwiiPjS_S_S_S_ : hostFun 0x0x4088b9, fat_cubin_handle = 4
GPGPU-Sim PTX: __cudaRegisterFunction _Z19splitRearrange_nvmuiiPjS_S_S_S_ : hostFun 0x0x4086c1, fat_cubin_handle = 4
GPGPU-Sim PTX: __cudaRegisterFunction _Z19splitRearrange_nvmqiiPjS_S_S_S_ : hostFun 0x0x4084c9, fat_cubin_handle = 4
GPGPU-Sim PTX: __cudaRegisterFunction _Z19splitRearrange_nvmoiiPjS_S_S_S_ : hostFun 0x0x4082d1, fat_cubin_handle = 4
GPGPU-Sim PTX: __cudaRegisterFunction _Z19splitRearrange_nvmdiiPjS_S_S_S_ : hostFun 0x0x4080d9, fat_cubin_handle = 4
GPGPU-Sim PTX: __cudaRegisterFunction _Z19splitRearrange_nvmbiiPjS_S_S_S_ : hostFun 0x0x407ee1, fat_cubin_handle = 4
GPGPU-Sim PTX: __cudaRegisterFunction _Z14splitSort_nvmdiiPjS_S_ : hostFun 0x0x407cf6, fat_cubin_handle = 4
GPGPU-Sim PTX: __cudaRegisterFunction _Z14splitSort_nvmbiiPjS_S_ : hostFun 0x0x407b60, fat_cubin_handle = 4
GPGPU-Sim PTX: __cudaRegisterFunction _Z14splitSort_nvm2iiPjS_S_ : hostFun 0x0x4079ca, fat_cubin_handle = 4
GPGPU-Sim PTX: __cudaRegisterFunction _Z14splitSort_nvm1iiPjS_S_ : hostFun 0x0x407834, fat_cubin_handle = 4
GPGPU-Sim PTX: __cudaRegisterFunction _Z14splitSort_nvmwiiPjS_S_ : hostFun 0x0x40769e, fat_cubin_handle = 4
GPGPU-Sim PTX: __cudaRegisterFunction _Z14splitSort_nvmuiiPjS_S_ : hostFun 0x0x407508, fat_cubin_handle = 4
GPGPU-Sim PTX: __cudaRegisterFunction _Z14splitSort_nvmqiiPjS_S_ : hostFun 0x0x407372, fat_cubin_handle = 4
GPGPU-Sim PTX: __cudaRegisterFunction _Z14splitSort_nvmoiiPjS_S_ : hostFun 0x0x4071dc, fat_cubin_handle = 4
GPGPU-Sim PTX: __cudaRegisterFunction _Z9splitSortiiPjS_S_ : hostFun 0x0x407046, fat_cubin_handle = 4
GPGPU-Sim PTX: __cudaRegisterVar: hostVar = 0x4a1c580; deviceAddress = NVM_log1; deviceName = NVM_log1
GPGPU-Sim PTX: __cudaRegisterVar: Registering const memory space of 67108864 bytes
GPGPU-Sim PTX registering global NVM_log1 hostVar to name mapping
GPGPU-Sim PTX: __cudaRegisterVar: hostVar = 0x8a1c580; deviceAddress = NVM_log2; deviceName = NVM_log2
GPGPU-Sim PTX: __cudaRegisterVar: Registering const memory space of 67108864 bytes
GPGPU-Sim PTX registering global NVM_log2 hostVar to name mapping
GPGPU-Sim PTX: __cudaRegisterVar: hostVar = 0xca1c580; deviceAddress = NVM_log3; deviceName = NVM_log3
GPGPU-Sim PTX: __cudaRegisterVar: Registering const memory space of 67108864 bytes
GPGPU-Sim PTX registering global NVM_log3 hostVar to name mapping
GPGPU-Sim PTX: __cudaRegisterVar: hostVar = 0x10a1c580; deviceAddress = NVM_flag; deviceName = NVM_flag
GPGPU-Sim PTX: __cudaRegisterVar: Registering const memory space of 4194304 bytes
GPGPU-Sim PTX registering global NVM_flag hostVar to name mapping

Reading parameters
  Total amount of GPU memory: 2147483648 bytes
  Number of samples = 2655910
  Grid Size = 256x256x256
  Input Matrix Size = 60x60x60
  Recon Matrix Size = 60x60x60
  Kernel Width = 5.000000
  KMax = 150.00 150.00 150.00
  Oversampling = 5.000000
  GPU Binsize = 32
  Use LUT = Yes
Reading input data from files
Generating Look-Up Table
Running gold version
Running CUDA version
GPGPU-Sim PTX: cudaMemcpyToSymbol: symbol = 0x61c470
GPGPU-Sim PTX: starting gpgpu_ptx_sim_memcpy_symbol with hostVar 0x0x61c470
GPGPU-Sim PTX: gpgpu_ptx_sim_memcpy_symbol: Found PTX symbol w/ hostVar=0x61c470
GPGPU-Sim PTX: gpgpu_ptx_sim_memcpy_symbol: copying const memory 4 bytes  to  symbol cutoff2_c+0 @0x100 ...
GPGPU-Sim PTX: cudaMemcpyToSymbol: symbol = 0x61c474
GPGPU-Sim PTX: starting gpgpu_ptx_sim_memcpy_symbol with hostVar 0x0x61c474
GPGPU-Sim PTX: gpgpu_ptx_sim_memcpy_symbol: Found PTX symbol w/ hostVar=0x61c474
GPGPU-Sim PTX: gpgpu_ptx_sim_memcpy_symbol: copying const memory 4 bytes  to  symbol cutoff_c+0 @0x104 ...
GPGPU-Sim PTX: cudaMemcpyToSymbol: symbol = 0x61c478
GPGPU-Sim PTX: starting gpgpu_ptx_sim_memcpy_symbol with hostVar 0x0x61c478
GPGPU-Sim PTX: gpgpu_ptx_sim_memcpy_symbol: Found PTX symbol w/ hostVar=0x61c478
GPGPU-Sim PTX: gpgpu_ptx_sim_memcpy_symbol: copying const memory 12 bytes  to  symbol gridSize_c+0 @0x180 ...
GPGPU-Sim PTX: cudaMemcpyToSymbol: symbol = 0x61c484
GPGPU-Sim PTX: starting gpgpu_ptx_sim_memcpy_symbol with hostVar 0x0x61c484
GPGPU-Sim PTX: gpgpu_ptx_sim_memcpy_symbol: Found PTX symbol w/ hostVar=0x61c484
GPGPU-Sim PTX: gpgpu_ptx_sim_memcpy_symbol: copying const memory 4 bytes  to  symbol size_xy_c+0 @0x18c ...
GPGPU-Sim PTX: cudaMemcpyToSymbol: symbol = 0x61c488
GPGPU-Sim PTX: starting gpgpu_ptx_sim_memcpy_symbol with hostVar 0x0x61c488
GPGPU-Sim PTX: gpgpu_ptx_sim_memcpy_symbol: Found PTX symbol w/ hostVar=0x61c488
GPGPU-Sim PTX: gpgpu_ptx_sim_memcpy_symbol: copying const memory 4 bytes  to  symbol _1overCutoff2_c+0 @0x190 ...
event update
GPGPU-Sim: synchronize waiting for inactive GPU simulation
GPGPU-Sim API: Stream Manager State
GPGPU-Sim: detected inactive GPU simulation thread
GPGPU-Sim: synchronize waiting for inactive GPU simulation
GPGPU-Sim API: Stream Manager State
GPGPU-Sim: detected inactive GPU simulation thread
GPGPU-Sim: synchronize waiting for inactive GPU simulation
GPGPU-Sim API: Stream Manager State
GPGPU-Sim: detected inactive GPU simulation thread
GPGPU-Sim PTX: Setting up arguments for 4 bytes starting at 0x7ffc1113ef2c..
GPGPU-Sim PTX: Setting up arguments for 4 bytes starting at 0x7ffc1113ef28..
GPGPU-Sim PTX: Setting up arguments for 8 bytes starting at 0x7ffc1113ef20..
GPGPU-Sim PTX: Setting up arguments for 8 bytes starting at 0x7ffc1113ef18..
GPGPU-Sim PTX: Setting up arguments for 8 bytes starting at 0x7ffc1113ef10..

GPGPU-Sim PTX: cudaLaunch for 0x0x40930e (mode=performance simulation) on stream 0
GPGPU-Sim PTX: finding reconvergence points for '_Z14splitSort_nvmiiiPjS_S_'...
GPGPU-Sim PTX: Finding dominators for '_Z14splitSort_nvmiiiPjS_S_'...
GPGPU-Sim PTX: Finding immediate dominators for '_Z14splitSort_nvmiiiPjS_S_'...
GPGPU-Sim PTX: Finding postdominators for '_Z14splitSort_nvmiiiPjS_S_'...
GPGPU-Sim PTX: Finding immediate postdominators for '_Z14splitSort_nvmiiiPjS_S_'...
GPGPU-Sim PTX: pre-decoding instructions for '_Z14splitSort_nvmiiiPjS_S_'...
GPGPU-Sim PTX: reconvergence points for _Z14splitSort_nvmiiiPjS_S_...
GPGPU-Sim PTX:  1 (potential) branch divergence @  PC=0xfe38 (mri-gridding.4.sm_70.ptx:7257) @%p2 bra BB20_2;
GPGPU-Sim PTX:    immediate post dominator      @  PC=0xfe68 (mri-gridding.4.sm_70.ptx:7266) shl.b32 %r84, %r3, 2;
GPGPU-Sim PTX:  2 (potential) branch divergence @  PC=0xfe88 (mri-gridding.4.sm_70.ptx:7270) @%p3 bra BB20_4;
GPGPU-Sim PTX:    immediate post dominator      @  PC=0xfea0 (mri-gridding.4.sm_70.ptx:7276) bar.sync 0;
GPGPU-Sim PTX:  3 (potential) branch divergence @  PC=0x10338 (mri-gridding.4.sm_70.ptx:7425) @%p4 bra BB20_9;
GPGPU-Sim PTX:    immediate post dominator      @  PC=0x10428 (mri-gridding.4.sm_70.ptx:7462) setp.ne.s32%p7, %r3, 0;
GPGPU-Sim PTX:  4 (potential) branch divergence @  PC=0x10350 (mri-gridding.4.sm_70.ptx:7430) @%p5 bra BB20_8;
GPGPU-Sim PTX:    immediate post dominator      @  PC=0x10408 (mri-gridding.4.sm_70.ptx:7456) shl.b32 %r343, %r343, 1;
GPGPU-Sim PTX:  5 (potential) branch divergence @  PC=0x10420 (mri-gridding.4.sm_70.ptx:7459) @%p6 bra BB20_6;
GPGPU-Sim PTX:    immediate post dominator      @  PC=0x10428 (mri-gridding.4.sm_70.ptx:7462) setp.ne.s32%p7, %r3, 0;
GPGPU-Sim PTX:  6 (potential) branch divergence @  PC=0x10430 (mri-gridding.4.sm_70.ptx:7463) @%p7 bra BB20_11;
GPGPU-Sim PTX:    immediate post dominator      @  PC=0x10468 (mri-gridding.4.sm_70.ptx:7473) mov.u32 %r344, %r88;
GPGPU-Sim PTX:  7 (potential) branch divergence @  PC=0x10470 (mri-gridding.4.sm_70.ptx:7474) @%p4 bra BB20_15;
GPGPU-Sim PTX:    immediate post dominator      @  PC=0x10570 (mri-gridding.4.sm_70.ptx:7513) bar.sync 0;
GPGPU-Sim PTX:  8 (potential) branch divergence @  PC=0x10490 (mri-gridding.4.sm_70.ptx:7480) @%p9 bra BB20_14;
GPGPU-Sim PTX:    immediate post dominator      @  PC=0x10558 (mri-gridding.4.sm_70.ptx:7508) shl.b32 %r344, %r344, 1;
GPGPU-Sim PTX:  9 (potential) branch divergence @  PC=0x10568 (mri-gridding.4.sm_70.ptx:7510) @%p10 bra BB20_12;
GPGPU-Sim PTX:    immediate post dominator      @  PC=0x10570 (mri-gridding.4.sm_70.ptx:7513) bar.sync 0;
GPGPU-Sim PTX: 10 (potential) branch divergence @  PC=0x106f0 (mri-gridding.4.sm_70.ptx:7561) @%p15 bra BB20_5;
GPGPU-Sim PTX:    immediate post dominator      @  PC=0x106f8 (mri-gridding.4.sm_70.ptx:7563) @%p2 bra BB20_18;
GPGPU-Sim PTX: 11 (potential) branch divergence @  PC=0x106f8 (mri-gridding.4.sm_70.ptx:7563) @%p2 bra BB20_18;
GPGPU-Sim PTX:    immediate post dominator      @  PC=0x10858 (mri-gridding.4.sm_70.ptx:7627) membar.gl;
GPGPU-Sim PTX: 12 (potential) branch divergence @  PC=0x108a8 (mri-gridding.4.sm_70.ptx:7638) @%p17 bra BB20_20;
GPGPU-Sim PTX:    immediate post dominator      @  PC=0x10918 (mri-gridding.4.sm_70.ptx:7659) @%p2 bra BB20_22;
GPGPU-Sim PTX: 13 (potential) branch divergence @  PC=0x10918 (mri-gridding.4.sm_70.ptx:7659) @%p2 bra BB20_22;
GPGPU-Sim PTX:    immediate post dominator      @  PC=0x109e0 (mri-gridding.4.sm_70.ptx:7703) @%p3 bra BB20_24;
GPGPU-Sim PTX: 14 (potential) branch divergence @  PC=0x109e0 (mri-gridding.4.sm_70.ptx:7703) @%p3 bra BB20_24;
GPGPU-Sim PTX:    immediate post dominator      @  PC=0x10a20 (mri-gridding.4.sm_70.ptx:7718) setp.eq.s32%p1, %r67, %r68;
GPGPU-Sim PTX: 15 (potential) branch divergence @  PC=0x10a38 (mri-gridding.4.sm_70.ptx:7723) @!%p1 bra BB20_26;
GPGPU-Sim PTX:    immediate post dominator      @  PC=0x10ab0 (mri-gridding.4.sm_70.ptx:7746) ret;
GPGPU-Sim PTX: 16 (potential) branch divergence @  PC=0x10a40 (mri-gridding.4.sm_70.ptx:7724) bra.uni BB20_25;
GPGPU-Sim PTX:    immediate post dominator      @  PC=0x10a48 (mri-gridding.4.sm_70.ptx:7727) mov.u32 %r311, %ctaid.y;
GPGPU-Sim PTX: ... end of reconvergence points for _Z14splitSort_nvmiiiPjS_S_
GPGPU-Sim PTX: ... done pre-decoding instructions for '_Z14splitSort_nvmiiiPjS_S_'.
GPGPU-Sim PTX: pushing kernel '_Z14splitSort_nvmiiiPjS_S_' to stream 0, gridDim= (2594,1,1) blockDim = (256,1,1) 
GPGPU-Sim uArch: Shader 0 bind to kernel 1 '_Z14splitSort_nvmiiiPjS_S_'
GPGPU-Sim uArch: CTA/core = 5, limited by: regs
GPGPU-Sim: Reconfigure L1 cache to 96KB
GPGPU-Sim uArch: Shader 1 bind to kernel 1 '_Z14splitSort_nvmiiiPjS_S_'
GPGPU-Sim uArch: Shader 2 bind to kernel 1 '_Z14splitSort_nvmiiiPjS_S_'
GPGPU-Sim uArch: Shader 3 bind to kernel 1 '_Z14splitSort_nvmiiiPjS_S_'
GPGPU-Sim uArch: Shader 4 bind to kernel 1 '_Z14splitSort_nvmiiiPjS_S_'
GPGPU-Sim uArch: Shader 5 bind to kernel 1 '_Z14splitSort_nvmiiiPjS_S_'
GPGPU-Sim uArch: Shader 6 bind to kernel 1 '_Z14splitSort_nvmiiiPjS_S_'
GPGPU-Sim uArch: Shader 7 bind to kernel 1 '_Z14splitSort_nvmiiiPjS_S_'
GPGPU-Sim uArch: Shader 8 bind to kernel 1 '_Z14splitSort_nvmiiiPjS_S_'
GPGPU-Sim uArch: Shader 9 bind to kernel 1 '_Z14splitSort_nvmiiiPjS_S_'
GPGPU-Sim uArch: Shader 10 bind to kernel 1 '_Z14splitSort_nvmiiiPjS_S_'
GPGPU-Sim uArch: Shader 11 bind to kernel 1 '_Z14splitSort_nvmiiiPjS_S_'
GPGPU-Sim uArch: Shader 12 bind to kernel 1 '_Z14splitSort_nvmiiiPjS_S_'
GPGPU-Sim uArch: Shader 13 bind to kernel 1 '_Z14splitSort_nvmiiiPjS_S_'
GPGPU-Sim uArch: Shader 14 bind to kernel 1 '_Z14splitSort_nvmiiiPjS_S_'
GPGPU-Sim uArch: Shader 15 bind to kernel 1 '_Z14splitSort_nvmiiiPjS_S_'
GPGPU-Sim uArch: Shader 16 bind to kernel 1 '_Z14splitSort_nvmiiiPjS_S_'
GPGPU-Sim uArch: Shader 17 bind to kernel 1 '_Z14splitSort_nvmiiiPjS_S_'
GPGPU-Sim uArch: Shader 18 bind to kernel 1 '_Z14splitSort_nvmiiiPjS_S_'
GPGPU-Sim uArch: Shader 19 bind to kernel 1 '_Z14splitSort_nvmiiiPjS_S_'
GPGPU-Sim uArch: Shader 20 bind to kernel 1 '_Z14splitSort_nvmiiiPjS_S_'
GPGPU-Sim uArch: Shader 21 bind to kernel 1 '_Z14splitSort_nvmiiiPjS_S_'
GPGPU-Sim uArch: Shader 22 bind to kernel 1 '_Z14splitSort_nvmiiiPjS_S_'
GPGPU-Sim uArch: Shader 23 bind to kernel 1 '_Z14splitSort_nvmiiiPjS_S_'
GPGPU-Sim uArch: Shader 24 bind to kernel 1 '_Z14splitSort_nvmiiiPjS_S_'
GPGPU-Sim uArch: Shader 25 bind to kernel 1 '_Z14splitSort_nvmiiiPjS_S_'
GPGPU-Sim uArch: Shader 26 bind to kernel 1 '_Z14splitSort_nvmiiiPjS_S_'
GPGPU-Sim uArch: Shader 27 bind to kernel 1 '_Z14splitSort_nvmiiiPjS_S_'
GPGPU-Sim uArch: Shader 28 bind to kernel 1 '_Z14splitSort_nvmiiiPjS_S_'
GPGPU-Sim uArch: Shader 29 bind to kernel 1 '_Z14splitSort_nvmiiiPjS_S_'
GPGPU-Sim uArch: Shader 30 bind to kernel 1 '_Z14splitSort_nvmiiiPjS_S_'
GPGPU-Sim uArch: Shader 31 bind to kernel 1 '_Z14splitSort_nvmiiiPjS_S_'
GPGPU-Sim uArch: Shader 32 bind to kernel 1 '_Z14splitSort_nvmiiiPjS_S_'
GPGPU-Sim uArch: Shader 33 bind to kernel 1 '_Z14splitSort_nvmiiiPjS_S_'
GPGPU-Sim uArch: Shader 34 bind to kernel 1 '_Z14splitSort_nvmiiiPjS_S_'
GPGPU-Sim uArch: Shader 35 bind to kernel 1 '_Z14splitSort_nvmiiiPjS_S_'
GPGPU-Sim uArch: Shader 36 bind to kernel 1 '_Z14splitSort_nvmiiiPjS_S_'
GPGPU-Sim uArch: Shader 37 bind to kernel 1 '_Z14splitSort_nvmiiiPjS_S_'
GPGPU-Sim uArch: Shader 38 bind to kernel 1 '_Z14splitSort_nvmiiiPjS_S_'
GPGPU-Sim uArch: Shader 39 bind to kernel 1 '_Z14splitSort_nvmiiiPjS_S_'
GPGPU-Sim uArch: Shader 40 bind to kernel 1 '_Z14splitSort_nvmiiiPjS_S_'
GPGPU-Sim uArch: Shader 41 bind to kernel 1 '_Z14splitSort_nvmiiiPjS_S_'
GPGPU-Sim uArch: Shader 42 bind to kernel 1 '_Z14splitSort_nvmiiiPjS_S_'
GPGPU-Sim uArch: Shader 43 bind to kernel 1 '_Z14splitSort_nvmiiiPjS_S_'
GPGPU-Sim uArch: Shader 44 bind to kernel 1 '_Z14splitSort_nvmiiiPjS_S_'
GPGPU-Sim uArch: Shader 45 bind to kernel 1 '_Z14splitSort_nvmiiiPjS_S_'
GPGPU-Sim uArch: Shader 46 bind to kernel 1 '_Z14splitSort_nvmiiiPjS_S_'
GPGPU-Sim uArch: Shader 47 bind to kernel 1 '_Z14splitSort_nvmiiiPjS_S_'
GPGPU-Sim uArch: Shader 48 bind to kernel 1 '_Z14splitSort_nvmiiiPjS_S_'
GPGPU-Sim uArch: Shader 49 bind to kernel 1 '_Z14splitSort_nvmiiiPjS_S_'
GPGPU-Sim uArch: Shader 50 bind to kernel 1 '_Z14splitSort_nvmiiiPjS_S_'
GPGPU-Sim uArch: Shader 51 bind to kernel 1 '_Z14splitSort_nvmiiiPjS_S_'
GPGPU-Sim uArch: Shader 52 bind to kernel 1 '_Z14splitSort_nvmiiiPjS_S_'
GPGPU-Sim uArch: Shader 53 bind to kernel 1 '_Z14splitSort_nvmiiiPjS_S_'
GPGPU-Sim uArch: Shader 54 bind to kernel 1 '_Z14splitSort_nvmiiiPjS_S_'
GPGPU-Sim uArch: Shader 55 bind to kernel 1 '_Z14splitSort_nvmiiiPjS_S_'
GPGPU-Sim uArch: Shader 56 bind to kernel 1 '_Z14splitSort_nvmiiiPjS_S_'
GPGPU-Sim uArch: Shader 57 bind to kernel 1 '_Z14splitSort_nvmiiiPjS_S_'
GPGPU-Sim uArch: Shader 58 bind to kernel 1 '_Z14splitSort_nvmiiiPjS_S_'
GPGPU-Sim uArch: Shader 59 bind to kernel 1 '_Z14splitSort_nvmiiiPjS_S_'
GPGPU-Sim uArch: Shader 60 bind to kernel 1 '_Z14splitSort_nvmiiiPjS_S_'
GPGPU-Sim uArch: Shader 61 bind to kernel 1 '_Z14splitSort_nvmiiiPjS_S_'
GPGPU-Sim uArch: Shader 62 bind to kernel 1 '_Z14splitSort_nvmiiiPjS_S_'
GPGPU-Sim uArch: Shader 63 bind to kernel 1 '_Z14splitSort_nvmiiiPjS_S_'
GPGPU-Sim uArch: Shader 64 bind to kernel 1 '_Z14splitSort_nvmiiiPjS_S_'
GPGPU-Sim uArch: Shader 65 bind to kernel 1 '_Z14splitSort_nvmiiiPjS_S_'
GPGPU-Sim uArch: Shader 66 bind to kernel 1 '_Z14splitSort_nvmiiiPjS_S_'
GPGPU-Sim uArch: Shader 67 bind to kernel 1 '_Z14splitSort_nvmiiiPjS_S_'
GPGPU-Sim uArch: Shader 68 bind to kernel 1 '_Z14splitSort_nvmiiiPjS_S_'
GPGPU-Sim uArch: Shader 69 bind to kernel 1 '_Z14splitSort_nvmiiiPjS_S_'
GPGPU-Sim uArch: Shader 70 bind to kernel 1 '_Z14splitSort_nvmiiiPjS_S_'
GPGPU-Sim uArch: Shader 71 bind to kernel 1 '_Z14splitSort_nvmiiiPjS_S_'
GPGPU-Sim uArch: Shader 72 bind to kernel 1 '_Z14splitSort_nvmiiiPjS_S_'
GPGPU-Sim uArch: Shader 73 bind to kernel 1 '_Z14splitSort_nvmiiiPjS_S_'
GPGPU-Sim uArch: Shader 74 bind to kernel 1 '_Z14splitSort_nvmiiiPjS_S_'
GPGPU-Sim uArch: Shader 75 bind to kernel 1 '_Z14splitSort_nvmiiiPjS_S_'
GPGPU-Sim uArch: Shader 76 bind to kernel 1 '_Z14splitSort_nvmiiiPjS_S_'
GPGPU-Sim uArch: Shader 77 bind to kernel 1 '_Z14splitSort_nvmiiiPjS_S_'
GPGPU-Sim uArch: Shader 78 bind to kernel 1 '_Z14splitSort_nvmiiiPjS_S_'
GPGPU-Sim uArch: Shader 79 bind to kernel 1 '_Z14splitSort_nvmiiiPjS_S_'
Destroy streams for kernel 1: size 0
kernel_name = _Z14splitSort_nvmiiiPjS_S_ 
kernel_launch_uid = 1 
gpu_sim_cycle = 410413
gpu_sim_insn = 999361100
gpu_ipc =    2435.0132
gpu_tot_sim_cycle = 410413
gpu_tot_sim_insn = 999361100
gpu_tot_ipc =    2435.0132
gpu_tot_issued_cta = 2594
gpu_occupancy = 59.1704% 
gpu_tot_occupancy = 59.1704% 
max_total_param_size = 0
gpu_stall_dramfull = 2478772
gpu_stall_icnt2sh    = 1985
partiton_level_parallism =      17.1095
partiton_level_parallism_total  =      17.1095
partiton_level_parallism_util =      18.7840
partiton_level_parallism_util_total  =      18.7840
L2_BW  =     619.7744 GB/Sec
L2_BW_total  =     619.7744 GB/Sec
gpu_total_sim_rate=226972
############## bottleneck_stats #############
cycles: core 410413, icnt 410413, l2 410413, dram 308172
gpu_ipc	2435.013
gpu_tot_issued_cta = 2594, average cycles = 158
n_dram_writes	 0, n_dram_reads	 0
n_GLOBAL_ACC_R	 1219846 
n_LOCAL_ACC_R	 0 
n_CONST_ACC_R	 0 
n_TEXTURE_ACC_R	 0 
n_GLOBAL_ACC_W	 2654952 
n_LOCAL_ACC_W	 0 
n_L1_WRBK_ACC	 0 
n_L2_WRBK_ACC	 143544 
n_L1_WR_ALLOC_R	 0 
n_L2_WR_ALLOC_R	 0 

n_sm	 80, n_schedulers	 4
scheduler util	0.259	80
L1D data util	0.904	80	0.925	1
L1D tag util	0.309	80	0.321	32
L2 data util	0.311	64	0.313	13
L2 tag util	0.267	64	0.269	13
n_l2_access	 7024241
icnt s2m util	0.000	0	0.000	13	flits per packet: -nan
icnt m2s util	0.000	0	0.000	13	flits per packet: -nan
sum=0
n_mem	 32
dram util	0.451	32	0.452	17

latency_l1_hit:	62524839, num_l1_reqs:	1679912
L1 hit latency:	37
latency_l2_hit:	-72072709, num_l2_reqs:	3075084
L2 hit latency:	1373
latency_dram:	-1203242196, num_dram_reqs:	3923410
DRAM latency:	788

n_reg	65536, n_smem	98304, n_thread	2048, n_tb	32
reg file	0.938
smem size	0.228
thread slot	0.625
TB slot    	0.156
L1I tag util	0.578	80	0.588	0

n_mem_pipe	1, n_sp_pipe	4, n_sfu_pipe	4
mem pipe util	0.141	80	0.144	0
sp pipe util	0.000	0	0.000	0
sfu pipe util	0.000	0	0.000	0
ldst mem cycle	0.000	0	0.000	0

smem port	0.572	80

n_reg_bank	16
reg port	0.138	16	0.211	3
L1D tag util	0.309	80	0.321	32
L1D fill util	0.051	80	0.053	1
n_l1d_mshr	4096
L1D mshr util	0.017	80
n_l1d_missq	16
L1D missq util	0.064	80
L1D hit rate	0.166
L1D miss rate	0.691
L1D rsfail rate	0.143
L2 tag util	0.267	64	0.269	13
L2 fill util	0.046	64	0.047	35
n_l2_mshr	192
n_l2_missq	32
L2 mshr util	0.177	64	0.181	37
L2 missq util	0.006	64	0.006	26
L2 hit rate	0.441
L2 miss rate	0.559
L2 rsfail rate	0.000

dram activity	0.796	32	0.804	20

load trans eff	0.250
load trans sz	32.000
load_useful_bytes 26559120, load_transaction_bytes 106236480, icnt_m2s_bytes 0
n_gmem_load_insns 207500, n_gmem_load_accesses 3319890
n_smem_access_insn 3937692, n_smem_accesses 18796124

tmp_counter/12	0.273

run 0.042, fetch 0.001, sync 0.514, control 0.003, data 0.426, struct 0.014
############ end_bottleneck_stats #############

========= Core cache stats =========
L1I_cache:
	L1I_total_cache_accesses = 0
	L1I_total_cache_misses = 0
	L1I_total_cache_pending_hits = 0
	L1I_total_cache_reservation_fails = 0
L1D_cache:
	L1D_cache_core[0]: Access = 110418, Miss = 89387, Miss_rate = 0.810, Pending_hits = 0, Reservation_fails = 19749
	L1D_cache_core[1]: Access = 110418, Miss = 89745, Miss_rate = 0.813, Pending_hits = 0, Reservation_fails = 17343
	L1D_cache_core[2]: Access = 107072, Miss = 86646, Miss_rate = 0.809, Pending_hits = 0, Reservation_fails = 21897
	L1D_cache_core[3]: Access = 107072, Miss = 86585, Miss_rate = 0.809, Pending_hits = 0, Reservation_fails = 18011
	L1D_cache_core[4]: Access = 110418, Miss = 88345, Miss_rate = 0.800, Pending_hits = 0, Reservation_fails = 19798
	L1D_cache_core[5]: Access = 107072, Miss = 86649, Miss_rate = 0.809, Pending_hits = 0, Reservation_fails = 16979
	L1D_cache_core[6]: Access = 107072, Miss = 86565, Miss_rate = 0.808, Pending_hits = 0, Reservation_fails = 20792
	L1D_cache_core[7]: Access = 107072, Miss = 85977, Miss_rate = 0.803, Pending_hits = 0, Reservation_fails = 16969
	L1D_cache_core[8]: Access = 107072, Miss = 85709, Miss_rate = 0.800, Pending_hits = 0, Reservation_fails = 19400
	L1D_cache_core[9]: Access = 110418, Miss = 89318, Miss_rate = 0.809, Pending_hits = 0, Reservation_fails = 16330
	L1D_cache_core[10]: Access = 107072, Miss = 86888, Miss_rate = 0.811, Pending_hits = 0, Reservation_fails = 21722
	L1D_cache_core[11]: Access = 110418, Miss = 88830, Miss_rate = 0.804, Pending_hits = 0, Reservation_fails = 16119
	L1D_cache_core[12]: Access = 107072, Miss = 86269, Miss_rate = 0.806, Pending_hits = 0, Reservation_fails = 17196
	L1D_cache_core[13]: Access = 107072, Miss = 86701, Miss_rate = 0.810, Pending_hits = 0, Reservation_fails = 20649
	L1D_cache_core[14]: Access = 107072, Miss = 86567, Miss_rate = 0.808, Pending_hits = 0, Reservation_fails = 15304
	L1D_cache_core[15]: Access = 110418, Miss = 89318, Miss_rate = 0.809, Pending_hits = 0, Reservation_fails = 16334
	L1D_cache_core[16]: Access = 110418, Miss = 89357, Miss_rate = 0.809, Pending_hits = 0, Reservation_fails = 16853
	L1D_cache_core[17]: Access = 109300, Miss = 87647, Miss_rate = 0.802, Pending_hits = 0, Reservation_fails = 16575
	L1D_cache_core[18]: Access = 107072, Miss = 86463, Miss_rate = 0.808, Pending_hits = 0, Reservation_fails = 23979
	L1D_cache_core[19]: Access = 107072, Miss = 85703, Miss_rate = 0.800, Pending_hits = 0, Reservation_fails = 17661
	L1D_cache_core[20]: Access = 110418, Miss = 89551, Miss_rate = 0.811, Pending_hits = 0, Reservation_fails = 16007
	L1D_cache_core[21]: Access = 107072, Miss = 85535, Miss_rate = 0.799, Pending_hits = 0, Reservation_fails = 16626
	L1D_cache_core[22]: Access = 107072, Miss = 86705, Miss_rate = 0.810, Pending_hits = 0, Reservation_fails = 20981
	L1D_cache_core[23]: Access = 110418, Miss = 89438, Miss_rate = 0.810, Pending_hits = 0, Reservation_fails = 17854
	L1D_cache_core[24]: Access = 110418, Miss = 89289, Miss_rate = 0.809, Pending_hits = 0, Reservation_fails = 20620
	L1D_cache_core[25]: Access = 107072, Miss = 87300, Miss_rate = 0.815, Pending_hits = 0, Reservation_fails = 19484
	L1D_cache_core[26]: Access = 107072, Miss = 86354, Miss_rate = 0.807, Pending_hits = 0, Reservation_fails = 17994
	L1D_cache_core[27]: Access = 107072, Miss = 86595, Miss_rate = 0.809, Pending_hits = 0, Reservation_fails = 18110
	L1D_cache_core[28]: Access = 107072, Miss = 86347, Miss_rate = 0.806, Pending_hits = 0, Reservation_fails = 15720
	L1D_cache_core[29]: Access = 107072, Miss = 86214, Miss_rate = 0.805, Pending_hits = 0, Reservation_fails = 17826
	L1D_cache_core[30]: Access = 107072, Miss = 86464, Miss_rate = 0.808, Pending_hits = 0, Reservation_fails = 22174
	L1D_cache_core[31]: Access = 107072, Miss = 86020, Miss_rate = 0.803, Pending_hits = 0, Reservation_fails = 19410
	L1D_cache_core[32]: Access = 110418, Miss = 88924, Miss_rate = 0.805, Pending_hits = 0, Reservation_fails = 21300
	L1D_cache_core[33]: Access = 110418, Miss = 88950, Miss_rate = 0.806, Pending_hits = 0, Reservation_fails = 17264
	L1D_cache_core[34]: Access = 107072, Miss = 85977, Miss_rate = 0.803, Pending_hits = 0, Reservation_fails = 18638
	L1D_cache_core[35]: Access = 110418, Miss = 88804, Miss_rate = 0.804, Pending_hits = 0, Reservation_fails = 16685
	L1D_cache_core[36]: Access = 110418, Miss = 89351, Miss_rate = 0.809, Pending_hits = 0, Reservation_fails = 14082
	L1D_cache_core[37]: Access = 110418, Miss = 88573, Miss_rate = 0.802, Pending_hits = 0, Reservation_fails = 14275
	L1D_cache_core[38]: Access = 107072, Miss = 86196, Miss_rate = 0.805, Pending_hits = 0, Reservation_fails = 19856
	L1D_cache_core[39]: Access = 110418, Miss = 88530, Miss_rate = 0.802, Pending_hits = 0, Reservation_fails = 19145
	L1D_cache_core[40]: Access = 107072, Miss = 86854, Miss_rate = 0.811, Pending_hits = 0, Reservation_fails = 16872
	L1D_cache_core[41]: Access = 107072, Miss = 86591, Miss_rate = 0.809, Pending_hits = 0, Reservation_fails = 15058
	L1D_cache_core[42]: Access = 107072, Miss = 86322, Miss_rate = 0.806, Pending_hits = 0, Reservation_fails = 21850
	L1D_cache_core[43]: Access = 110418, Miss = 89030, Miss_rate = 0.806, Pending_hits = 0, Reservation_fails = 16938
	L1D_cache_core[44]: Access = 110418, Miss = 88604, Miss_rate = 0.802, Pending_hits = 0, Reservation_fails = 16506
	L1D_cache_core[45]: Access = 110418, Miss = 88417, Miss_rate = 0.801, Pending_hits = 0, Reservation_fails = 15204
	L1D_cache_core[46]: Access = 107072, Miss = 85626, Miss_rate = 0.800, Pending_hits = 0, Reservation_fails = 18456
	L1D_cache_core[47]: Access = 107072, Miss = 86187, Miss_rate = 0.805, Pending_hits = 0, Reservation_fails = 18100
	L1D_cache_core[48]: Access = 110418, Miss = 88943, Miss_rate = 0.806, Pending_hits = 0, Reservation_fails = 15122
	L1D_cache_core[49]: Access = 107072, Miss = 86086, Miss_rate = 0.804, Pending_hits = 0, Reservation_fails = 18895
	L1D_cache_core[50]: Access = 107072, Miss = 85677, Miss_rate = 0.800, Pending_hits = 0, Reservation_fails = 20056
	L1D_cache_core[51]: Access = 107072, Miss = 86535, Miss_rate = 0.808, Pending_hits = 0, Reservation_fails = 17584
	L1D_cache_core[52]: Access = 110418, Miss = 89211, Miss_rate = 0.808, Pending_hits = 0, Reservation_fails = 19597
	L1D_cache_core[53]: Access = 110418, Miss = 88978, Miss_rate = 0.806, Pending_hits = 0, Reservation_fails = 16039
	L1D_cache_core[54]: Access = 107072, Miss = 86226, Miss_rate = 0.805, Pending_hits = 0, Reservation_fails = 21187
	L1D_cache_core[55]: Access = 110418, Miss = 88896, Miss_rate = 0.805, Pending_hits = 0, Reservation_fails = 18548
	L1D_cache_core[56]: Access = 107072, Miss = 85855, Miss_rate = 0.802, Pending_hits = 0, Reservation_fails = 14393
	L1D_cache_core[57]: Access = 107072, Miss = 85715, Miss_rate = 0.801, Pending_hits = 0, Reservation_fails = 19705
	L1D_cache_core[58]: Access = 107072, Miss = 86607, Miss_rate = 0.809, Pending_hits = 0, Reservation_fails = 21939
	L1D_cache_core[59]: Access = 107072, Miss = 87054, Miss_rate = 0.813, Pending_hits = 0, Reservation_fails = 18158
	L1D_cache_core[60]: Access = 107072, Miss = 85725, Miss_rate = 0.801, Pending_hits = 0, Reservation_fails = 17532
	L1D_cache_core[61]: Access = 107072, Miss = 86484, Miss_rate = 0.808, Pending_hits = 0, Reservation_fails = 18749
	L1D_cache_core[62]: Access = 110418, Miss = 88118, Miss_rate = 0.798, Pending_hits = 0, Reservation_fails = 17481
	L1D_cache_core[63]: Access = 107072, Miss = 86224, Miss_rate = 0.805, Pending_hits = 0, Reservation_fails = 17566
	L1D_cache_core[64]: Access = 110418, Miss = 88989, Miss_rate = 0.806, Pending_hits = 0, Reservation_fails = 15458
	L1D_cache_core[65]: Access = 110418, Miss = 89191, Miss_rate = 0.808, Pending_hits = 0, Reservation_fails = 17302
	L1D_cache_core[66]: Access = 110418, Miss = 89542, Miss_rate = 0.811, Pending_hits = 0, Reservation_fails = 16101
	L1D_cache_core[67]: Access = 107072, Miss = 86809, Miss_rate = 0.811, Pending_hits = 0, Reservation_fails = 19579
	L1D_cache_core[68]: Access = 107072, Miss = 85713, Miss_rate = 0.801, Pending_hits = 0, Reservation_fails = 17117
	L1D_cache_core[69]: Access = 110418, Miss = 89460, Miss_rate = 0.810, Pending_hits = 0, Reservation_fails = 15724
	L1D_cache_core[70]: Access = 110418, Miss = 89666, Miss_rate = 0.812, Pending_hits = 0, Reservation_fails = 17183
	L1D_cache_core[71]: Access = 110418, Miss = 88955, Miss_rate = 0.806, Pending_hits = 0, Reservation_fails = 17625
	L1D_cache_core[72]: Access = 110418, Miss = 88668, Miss_rate = 0.803, Pending_hits = 0, Reservation_fails = 15713
	L1D_cache_core[73]: Access = 107072, Miss = 86433, Miss_rate = 0.807, Pending_hits = 0, Reservation_fails = 21462
	L1D_cache_core[74]: Access = 107072, Miss = 86978, Miss_rate = 0.812, Pending_hits = 0, Reservation_fails = 21800
	L1D_cache_core[75]: Access = 107072, Miss = 86222, Miss_rate = 0.805, Pending_hits = 0, Reservation_fails = 18790
	L1D_cache_core[76]: Access = 110418, Miss = 89090, Miss_rate = 0.807, Pending_hits = 0, Reservation_fails = 17814
	L1D_cache_core[77]: Access = 110418, Miss = 89466, Miss_rate = 0.810, Pending_hits = 0, Reservation_fails = 16179
	L1D_cache_core[78]: Access = 107072, Miss = 86470, Miss_rate = 0.808, Pending_hits = 0, Reservation_fails = 21884
[...]
bk0: 3616a 766475i bk1: 3664a 766264i bk2: 3664a 765360i bk3: 3656a 767350i bk4: 3712a 766242i bk5: 3712a 766115i bk6: 3644a 768012i bk7: 3640a 768057i bk8: 3688a 768485i bk9: 3704a 767708i bk10: 3736a 766559i bk11: 3728a 766652i bk12: 3736a 766274i bk13: 3720a 766186i bk14: 3672a 764934i bk15: 3700a 765494i 

------------------------------------------------------------------------

Row_Buffer_Locality = 0.954318
Row_Buffer_Locality_read = 0.946196
Row_Buffer_Locality_write = 0.959752
Bank_Level_Parallism = 2.555466
Bank_Level_Parallism_Col = 2.281550
Bank_Level_Parallism_Ready = 1.302242
write_to_read_ratio_blp_rw_average = 0.552637
GrpLevelPara = 1.905350 

BW Util details:
bwutil = 0.202567 
total_CMD = 804011 
util_bw = 162866 
Wasted_Col = 115217 
Wasted_Row = 13519 
Idle = 512409 

BW Util Bottlenecks: 
RCDc_limit = 20579 
RCDWRc_limit = 16904 
WTRc_limit = 55000 
RTWc_limit = 74055 
CCDLc_limit = 81920 
rwq = 0 
CCDLc_limit_alone = 69280 
WTRc_limit_alone = 47867 
RTWc_limit_alone = 68548 

Commands details: 
total_CMD = 804011 
n_nop = 634193 
Read = 58992 
Write = 82944 
L2_Alloc = 0 
L2_WB = 20930 
n_act = 6723 
n_pre = 6707 
n_ref = 0 
n_req = 147170 
total_req = 162866 

Dual Bus Interface Util: 
issued_total_row = 13430 
issued_total_col = 162866 
Row_Bus_Util =  0.016704 
CoL_Bus_Util = 0.202567 
Either_Row_CoL_Bus_Util = 0.211214 
Issued_on_Two_Bus_Simul_Util = 0.008057 
issued_two_Eff = 0.038147 
queue_avg = 5.135261 


dram_util_bins: 0 0 0 0 0 0 0 0 0 0
dram_eff_bins: 0 0 0 0 0 0 0 0 0 0
mrqq: max=64 avg=5.13526
Memory Partition 29: 
Cache L2_bank_058:

Cache L2_bank_059:

In Dram Latency Queue (total = 0): 
DRAM[29]: 16 bks, busW=16 BL=2 CL=12, tRRD=3 tCCD=1, tRCD=12 tRAS=28 tRP=12 tRC=40
n_cmd=804011 n_nop=634552 n_act=6581 n_pre=6565 n_ref_event=0 n_req=147123 n_rd=58948 n_rd_L2_A=0 n_write=82944 n_wr_bk=20920 bw_util=0.2025
n_activity=316797 dram_eff=0.5139
bk0: 3616a 767152i bk1: 3656a 766754i bk2: 3664a 766221i bk3: 3656a 766472i bk4: 3712a 766633i bk5: 3712a 764839i bk6: 3648a 767005i bk7: 3640a 767738i bk8: 3688a 768785i bk9: 3696a 767760i bk10: 3728a 767991i bk11: 3728a 766899i bk12: 3720a 768541i bk13: 3712a 766335i bk14: 3672a 764772i bk15: 3700a 765667i 

------------------------------------------------------------------------

Row_Buffer_Locality = 0.955269
Row_Buffer_Locality_read = 0.948327
Row_Buffer_Locality_write = 0.959909
Bank_Level_Parallism = 2.560895
Bank_Level_Parallism_Col = 2.288770
Bank_Level_Parallism_Ready = 1.307662
write_to_read_ratio_blp_rw_average = 0.555961
GrpLevelPara = 1.909777 

BW Util details:
bwutil = 0.202500 
total_CMD = 804011 
util_bw = 162812 
Wasted_Col = 113929 
Wasted_Row = 12898 
Idle = 514372 

BW Util Bottlenecks: 
RCDc_limit = 18985 
RCDWRc_limit = 16667 
WTRc_limit = 55098 
RTWc_limit = 74229 
CCDLc_limit = 81055 
rwq = 0 
CCDLc_limit_alone = 68474 
WTRc_limit_alone = 47782 
RTWc_limit_alone = 68964 

Commands details: 
total_CMD = 804011 
n_nop = 634552 
Read = 58948 
Write = 82944 
L2_Alloc = 0 
L2_WB = 20920 
n_act = 6581 
n_pre = 6565 
n_ref = 0 
n_req = 147123 
total_req = 162812 

Dual Bus Interface Util: 
issued_total_row = 13146 
issued_total_col = 162812 
Row_Bus_Util =  0.016351 
CoL_Bus_Util = 0.202500 
Either_Row_CoL_Bus_Util = 0.210767 
Issued_on_Two_Bus_Simul_Util = 0.008083 
issued_two_Eff = 0.038351 
queue_avg = 4.967951 


dram_util_bins: 0 0 0 0 0 0 0 0 0 0
dram_eff_bins: 0 0 0 0 0 0 0 0 0 0
mrqq: max=64 avg=4.96795
Memory Partition 30: 
Cache L2_bank_060:

Cache L2_bank_061:

In Dram Latency Queue (total = 0): 
DRAM[30]: 16 bks, busW=16 BL=2 CL=12, tRRD=3 tCCD=1, tRCD=12 tRAS=28 tRP=12 tRC=40
n_cmd=804011 n_nop=633581 n_act=7414 n_pre=7398 n_ref_event=0 n_req=147224 n_rd=59020 n_rd_L2_A=0 n_write=82976 n_wr_bk=20912 bw_util=0.2026
n_activity=317663 dram_eff=0.5128
bk0: 3632a 766322i bk1: 3648a 764393i bk2: 3680a 764857i bk3: 3648a 765331i bk4: 3712a 764673i bk5: 3704a 765400i bk6: 3648a 765330i bk7: 3636a 766174i bk8: 3688a 766649i bk9: 3704a 765411i bk10: 3744a 766492i bk11: 3736a 763539i bk12: 3736a 766570i bk13: 3712a 762845i bk14: 3688a 765403i bk15: 3704a 764390i 

------------------------------------------------------------------------

Row_Buffer_Locality = 0.949641
Row_Buffer_Locality_read = 0.948695
Row_Buffer_Locality_write = 0.950274
Bank_Level_Parallism = 2.636595
Bank_Level_Parallism_Col = 2.317364
Bank_Level_Parallism_Ready = 1.352383
write_to_read_ratio_blp_rw_average = 0.575787
GrpLevelPara = 1.913491 

BW Util details:
bwutil = 0.202619 
total_CMD = 804011 
util_bw = 162908 
Wasted_Col = 114033 
Wasted_Row = 14200 
Idle = 512870 

BW Util Bottlenecks: 
RCDc_limit = 18713 
RCDWRc_limit = 20383 
WTRc_limit = 48739 
RTWc_limit = 82246 
CCDLc_limit = 78286 
rwq = 0 
CCDLc_limit_alone = 66458 
WTRc_limit_alone = 42676 
RTWc_limit_alone = 76481 

Commands details: 
total_CMD = 804011 
n_nop = 633581 
Read = 59020 
Write = 82976 
L2_Alloc = 0 
L2_WB = 20912 
n_act = 7414 
n_pre = 7398 
n_ref = 0 
n_req = 147224 
total_req = 162908 

Dual Bus Interface Util: 
issued_total_row = 14812 
issued_total_col = 162908 
Row_Bus_Util =  0.018423 
CoL_Bus_Util = 0.202619 
Either_Row_CoL_Bus_Util = 0.211975 
Issued_on_Two_Bus_Simul_Util = 0.009067 
issued_two_Eff = 0.042774 
queue_avg = 4.641670 


dram_util_bins: 0 0 0 0 0 0 0 0 0 0
dram_eff_bins: 0 0 0 0 0 0 0 0 0 0
mrqq: max=64 avg=4.64167
Memory Partition 31: 
Cache L2_bank_062:

Cache L2_bank_063:

In Dram Latency Queue (total = 0): 
DRAM[31]: 16 bks, busW=16 BL=2 CL=12, tRRD=3 tCCD=1, tRCD=12 tRAS=28 tRP=12 tRC=40
n_cmd=804011 n_nop=633490 n_act=7385 n_pre=7369 n_ref_event=0 n_req=147209 n_rd=59005 n_rd_L2_A=0 n_write=82976 n_wr_bk=20909 bw_util=0.2026
n_activity=319910 dram_eff=0.5092
bk0: 3640a 764354i bk1: 3648a 763929i bk2: 3672a 764760i bk3: 3648a 764782i bk4: 3712a 765471i bk5: 3704a 765750i bk6: 3640a 766003i bk7: 3640a 766917i bk8: 3688a 765413i bk9: 3696a 765783i bk10: 3744a 764926i bk11: 3744a 763146i bk12: 3729a 764502i bk13: 3712a 765133i bk14: 3688a 762741i bk15: 3700a 764248i 

------------------------------------------------------------------------

Row_Buffer_Locality = 0.949833
Row_Buffer_Locality_read = 0.949275
Row_Buffer_Locality_write = 0.950206
Bank_Level_Parallism = 2.638817
Bank_Level_Parallism_Col = 2.323723
Bank_Level_Parallism_Ready = 1.359660
write_to_read_ratio_blp_rw_average = 0.575758
GrpLevelPara = 1.916566 

BW Util details:
bwutil = 0.202597 
total_CMD = 804011 
util_bw = 162890 
Wasted_Col = 115637 
Wasted_Row = 14607 
Idle = 510877 

BW Util Bottlenecks: 
RCDc_limit = 19111 
RCDWRc_limit = 20787 
WTRc_limit = 48459 
RTWc_limit = 86133 
CCDLc_limit = 79664 
rwq = 0 
CCDLc_limit_alone = 66951 
WTRc_limit_alone = 42111 
RTWc_limit_alone = 79768 

Commands details: 
total_CMD = 804011 
n_nop = 633490 
Read = 59005 
Write = 82976 
L2_Alloc = 0 
L2_WB = 20909 
n_act = 7385 
n_pre = 7369 
n_ref = 0 
n_req = 147209 
total_req = 162890 

Dual Bus Interface Util: 
issued_total_row = 14754 
issued_total_col = 162890 
Row_Bus_Util =  0.018350 
CoL_Bus_Util = 0.202597 
Either_Row_CoL_Bus_Util = 0.212088 
Issued_on_Two_Bus_Simul_Util = 0.008859 
issued_two_Eff = 0.041772 
queue_avg = 4.867142 


dram_util_bins: 0 0 0 0 0 0 0 0 0 0
dram_eff_bins: 0 0 0 0 0 0 0 0 0 0
mrqq: max=64 avg=4.86714

========= L2 cache stats =========
L2_cache_bank[0]: Access = 192184, Miss = 143067, Miss_rate = 0.744, Pending_hits = 148, Reservation_fails = 8100
L2_cache_bank[1]: Access = 204063, Miss = 154856, Miss_rate = 0.759, Pending_hits = 158, Reservation_fails = 7919
L2_cache_bank[2]: Access = 203714, Miss = 154573, Miss_rate = 0.759, Pending_hits = 158, Reservation_fails = 4448
L2_cache_bank[3]: Access = 208672, Miss = 159883, Miss_rate = 0.766, Pending_hits = 166, Reservation_fails = 5231
L2_cache_bank[4]: Access = 208996, Miss = 159939, Miss_rate = 0.765, Pending_hits = 171, Reservation_fails = 6235
L2_cache_bank[5]: Access = 203915, Miss = 154844, Miss_rate = 0.759, Pending_hits = 139, Reservation_fails = 4541
L2_cache_bank[6]: Access = 203950, Miss = 154892, Miss_rate = 0.759, Pending_hits = 161, Reservation_fails = 6732
L2_cache_bank[7]: Access = 208937, Miss = 159780, Miss_rate = 0.765, Pending_hits = 168, Reservation_fails = 9119
L2_cache_bank[8]: Access = 209459, Miss = 159887, Miss_rate = 0.763, Pending_hits = 148, Reservation_fails = 9150
L2_cache_bank[9]: Access = 203795, Miss = 154840, Miss_rate = 0.760, Pending_hits = 166, Reservation_fails = 8297
L2_cache_bank[10]: Access = 204289, Miss = 154873, Miss_rate = 0.758, Pending_hits = 157, Reservation_fails = 7860
L2_cache_bank[11]: Access = 208695, Miss = 159867, Miss_rate = 0.766, Pending_hits = 142, Reservation_fails = 8579
L2_cache_bank[12]: Access = 209107, Miss = 159927, Miss_rate = 0.765, Pending_hits = 161, Reservation_fails = 8870
L2_cache_bank[13]: Access = 204422, Miss = 154872, Miss_rate = 0.758, Pending_hits = 152, Reservation_fails = 7161
L2_cache_bank[14]: Access = 204075, Miss = 154912, Miss_rate = 0.759, Pending_hits = 163, Reservation_fails = 5040
L2_cache_bank[15]: Access = 209328, Miss = 159871, Miss_rate = 0.764, Pending_hits = 143, Reservation_fails = 4349
L2_cache_bank[16]: Access = 208812, Miss = 159968, Miss_rate = 0.766, Pending_hits = 163, Reservation_fails = 6600
L2_cache_bank[17]: Access = 204410, Miss = 154828, Miss_rate = 0.757, Pending_hits = 148, Reservation_fails = 7683
L2_cache_bank[18]: Access = 203818, Miss = 154928, Miss_rate = 0.760, Pending_hits = 152, Reservation_fails = 6723
L2_cache_bank[19]: Access = 209271, Miss = 159815, Miss_rate = 0.764, Pending_hits = 156, Reservation_fails = 5770
L2_cache_bank[20]: Access = 208757, Miss = 159939, Miss_rate = 0.766, Pending_hits = 138, Reservation_fails = 6978
L2_cache_bank[21]: Access = 203780, Miss = 154715, Miss_rate = 0.759, Pending_hits = 165, Reservation_fails = 9860
L2_cache_bank[22]: Access = 203795, Miss = 154908, Miss_rate = 0.760, Pending_hits = 154, Reservation_fails = 4164
L2_cache_bank[23]: Access = 137284, Miss = 88118, Miss_rate = 0.642, Pending_hits = 154, Reservation_fails = 7306
L2_cache_bank[24]: Access = 208593, Miss = 159832, Miss_rate = 0.766, Pending_hits = 161, Reservation_fails = 11063
L2_cache_bank[25]: Access = 120447, Miss = 71752, Miss_rate = 0.596, Pending_hits = 140, Reservation_fails = 5123
L2_cache_bank[26]: Access = 203427, Miss = 154836, Miss_rate = 0.761, Pending_hits = 145, Reservation_fails = 7504
L2_cache_bank[27]: Access = 120347, Miss = 71744, Miss_rate = 0.596, Pending_hits = 156, Reservation_fails = 4974
L2_cache_bank[28]: Access = 208456, Miss = 159823, Miss_rate = 0.767, Pending_hits = 149, Reservation_fails = 8598
L2_cache_bank[29]: Access = 119756, Miss = 71689, Miss_rate = 0.599, Pending_hits = 166, Reservation_fails = 9310
L2_cache_bank[30]: Access = 203390, Miss = 154808, Miss_rate = 0.761, Pending_hits = 142, Reservation_fails = 6130
L2_cache_bank[31]: Access = 119848, Miss = 71680, Miss_rate = 0.598, Pending_hits = 168, Reservation_fails = 7743
L2_cache_bank[32]: Access = 137441, Miss = 88378, Miss_rate = 0.643, Pending_hits = 164, Reservation_fails = 9310
L2_cache_bank[33]: Access = 120958, Miss = 71749, Miss_rate = 0.593, Pending_hits = 158, Reservation_fails = 7417
L2_cache_bank[34]: Access = 120818, Miss = 72040, Miss_rate = 0.596, Pending_hits = 141, Reservation_fails = 4867
L2_cache_bank[35]: Access = 120625, Miss = 71728, Miss_rate = 0.595, Pending_hits = 154, Reservation_fails = 5237
L2_cache_bank[36]: Access = 121051, Miss = 71977, Miss_rate = 0.595, Pending_hits = 179, Reservation_fails = 6435
L2_cache_bank[37]: Access = 120674, Miss = 71592, Miss_rate = 0.593, Pending_hits = 165, Reservation_fails = 8221
L2_cache_bank[38]: Access = 121233, Miss = 71856, Miss_rate = 0.593, Pending_hits = 160, Reservation_fails = 6856
L2_cache_bank[39]: Access = 120674, Miss = 71608, Miss_rate = 0.593, Pending_hits = 146, Reservation_fails = 3281
L2_cache_bank[40]: Access = 120951, Miss = 71864, Miss_rate = 0.594, Pending_hits = 159, Reservation_fails = 3759
L2_cache_bank[41]: Access = 121281, Miss = 71693, Miss_rate = 0.591, Pending_hits = 168, Reservation_fails = 6693
L2_cache_bank[42]: Access = 120943, Miss = 71852, Miss_rate = 0.594, Pending_hits = 156, Reservation_fails = 8256
L2_cache_bank[43]: Access = 121176, Miss = 71672, Miss_rate = 0.591, Pending_hits = 165, Reservation_fails = 7370
L2_cache_bank[44]: Access = 121111, Miss = 71865, Miss_rate = 0.593, Pending_hits = 166, Reservation_fails = 5855
L2_cache_bank[45]: Access = 121399, Miss = 71622, Miss_rate = 0.590, Pending_hits = 168, Reservation_fails = 5645
L2_cache_bank[46]: Access = 121033, Miss = 71864, Miss_rate = 0.594, Pending_hits = 169, Reservation_fails = 9154
L2_cache_bank[47]: Access = 121096, Miss = 71668, Miss_rate = 0.592, Pending_hits = 156, Reservation_fails = 6220
L2_cache_bank[48]: Access = 120799, Miss = 71936, Miss_rate = 0.596, Pending_hits = 166, Reservation_fails = 10797
L2_cache_bank[49]: Access = 120957, Miss = 71704, Miss_rate = 0.593, Pending_hits = 186, Reservation_fails = 7330
L2_cache_bank[50]: Access = 120819, Miss = 71856, Miss_rate = 0.595, Pending_hits = 157, Reservation_fails = 3663
L2_cache_bank[51]: Access = 121031, Miss = 71696, Miss_rate = 0.592, Pending_hits = 173, Reservation_fails = 6923
L2_cache_bank[52]: Access = 120793, Miss = 71872, Miss_rate = 0.595, Pending_hits = 167, Reservation_fails = 4704
L2_cache_bank[53]: Access = 120684, Miss = 71676, Miss_rate = 0.594, Pending_hits = 180, Reservation_fails = 5274
L2_cache_bank[54]: Access = 192382, Miss = 143421, Miss_rate = 0.746, Pending_hits = 145, Reservation_fails = 6341
L2_cache_bank[55]: Access = 120747, Miss = 71696, Miss_rate = 0.594, Pending_hits = 175, Reservation_fails = 8278
L2_cache_bank[56]: Access = 203523, Miss = 154852, Miss_rate = 0.761, Pending_hits = 162, Reservation_fails = 5577
L2_cache_bank[57]: Access = 120606, Miss = 71700, Miss_rate = 0.594, Pending_hits = 172, Reservation_fails = 9654
L2_cache_bank[58]: Access = 208282, Miss = 159795, Miss_rate = 0.767, Pending_hits = 164, Reservation_fails = 8270
L2_cache_bank[59]: Access = 120524, Miss = 71676, Miss_rate = 0.595, Pending_hits = 177, Reservation_fails = 5056
L2_cache_bank[60]: Access = 202738, Miss = 154840, Miss_rate = 0.764, Pending_hits = 160, Reservation_fails = 6604
L2_cache_bank[61]: Access = 120187, Miss = 71668, Miss_rate = 0.596, Pending_hits = 157, Reservation_fails = 4609
L2_cache_bank[62]: Access = 207796, Miss = 159828, Miss_rate = 0.769, Pending_hits = 160, Reservation_fails = 5844
L2_cache_bank[63]: Access = 119876, Miss = 71636, Miss_rate = 0.598, Pending_hits = 162, Reservation_fails = 8540
L2_total_cache_accesses = 10466000
L2_total_cache_misses = 7331146
L2_total_cache_miss_rate = 0.7005
L2_total_cache_pending_hits = 10195
L2_total_cache_reservation_fails = 439200
L2_total_cache_breakdown:
	L2_cache_stats_breakdown[GLOBAL_ACC_R][HIT] = 469707
	L2_cache_stats_breakdown[GLOBAL_ACC_R][HIT_RESERVED] = 10195
	L2_cache_stats_breakdown[GLOBAL_ACC_R][MISS] = 472256
	L2_cache_stats_breakdown[GLOBAL_ACC_R][RESERVATION_FAIL] = 439200
	L2_cache_stats_breakdown[GLOBAL_ACC_R][SECTOR_MISS] = 1416768
	L2_cache_stats_breakdown[LOCAL_ACC_R][HIT] = 0
	L2_cache_stats_breakdown[LOCAL_ACC_R][HIT_RESERVED] = 0
	L2_cache_stats_breakdown[LOCAL_ACC_R][MISS] = 0
	L2_cache_stats_breakdown[LOCAL_ACC_R][RESERVATION_FAIL] = 0
	L2_cache_stats_breakdown[LOCAL_ACC_R][SECTOR_MISS] = 0
	L2_cache_stats_breakdown[CONST_ACC_R][HIT] = 0
	L2_cache_stats_breakdown[CONST_ACC_R][HIT_RESERVED] = 0
	L2_cache_stats_breakdown[CONST_ACC_R][MISS] = 0
	L2_cache_stats_breakdown[CONST_ACC_R][RESERVATION_FAIL] = 0
	L2_cache_stats_breakdown[CONST_ACC_R][SECTOR_MISS] = 0
	L2_cache_stats_breakdown[TEXTURE_ACC_R][HIT] = 0
	L2_cache_stats_breakdown[TEXTURE_ACC_R][HIT_RESERVED] = 0
	L2_cache_stats_breakdown[TEXTURE_ACC_R][MISS] = 0
	L2_cache_stats_breakdown[TEXTURE_ACC_R][RESERVATION_FAIL] = 0
	L2_cache_stats_breakdown[TEXTURE_ACC_R][SECTOR_MISS] = 0
	L2_cache_stats_breakdown[GLOBAL_ACC_W][HIT] = 2654952
	L2_cache_stats_breakdown[GLOBAL_ACC_W][HIT_RESERVED] = 0
	L2_cache_stats_breakdown[GLOBAL_ACC_W][MISS] = 167598
	L2_cache_stats_breakdown[GLOBAL_ACC_W][RESERVATION_FAIL] = 0
	L2_cache_stats_breakdown[GLOBAL_ACC_W][SECTOR_MISS] = 5274524
	L2_cache_stats_breakdown[LOCAL_ACC_W][HIT] = 0
	L2_cache_stats_breakdown[LOCAL_ACC_W][HIT_RESERVED] = 0
	L2_cache_stats_breakdown[LOCAL_ACC_W][MISS] = 0
	L2_cache_stats_breakdown[LOCAL_ACC_W][RESERVATION_FAIL] = 0
	L2_cache_stats_breakdown[LOCAL_ACC_W][SECTOR_MISS] = 0
	L2_cache_stats_breakdown[L1_WRBK_ACC][HIT] = 0
	L2_cache_stats_breakdown[L1_WRBK_ACC][HIT_RESERVED] = 0
	L2_cache_stats_breakdown[L1_WRBK_ACC][MISS] = 0
	L2_cache_stats_breakdown[L1_WRBK_ACC][RESERVATION_FAIL] = 0
	L2_cache_stats_breakdown[L1_WRBK_ACC][SECTOR_MISS] = 0
	L2_cache_stats_breakdown[L2_WRBK_ACC][HIT] = 0
	L2_cache_stats_breakdown[L2_WRBK_ACC][HIT_RESERVED] = 0
	L2_cache_stats_breakdown[L2_WRBK_ACC][MISS] = 0
	L2_cache_stats_breakdown[L2_WRBK_ACC][RESERVATION_FAIL] = 0
	L2_cache_stats_breakdown[L2_WRBK_ACC][SECTOR_MISS] = 0
	L2_cache_stats_breakdown[INST_ACC_R][HIT] = 0
	L2_cache_stats_breakdown[INST_ACC_R][HIT_RESERVED] = 0
	L2_cache_stats_breakdown[INST_ACC_R][MISS] = 0
	L2_cache_stats_breakdown[INST_ACC_R][RESERVATION_FAIL] = 0
	L2_cache_stats_breakdown[INST_ACC_R][SECTOR_MISS] = 0
	L2_cache_stats_breakdown[L1_WR_ALLOC_R][HIT] = 0
	L2_cache_stats_breakdown[L1_WR_ALLOC_R][HIT_RESERVED] = 0
	L2_cache_stats_breakdown[L1_WR_ALLOC_R][MISS] = 0
	L2_cache_stats_breakdown[L1_WR_ALLOC_R][RESERVATION_FAIL] = 0
	L2_cache_stats_breakdown[L1_WR_ALLOC_R][SECTOR_MISS] = 0
	L2_cache_stats_breakdown[L2_WR_ALLOC_R][HIT] = 0
	L2_cache_stats_breakdown[L2_WR_ALLOC_R][HIT_RESERVED] = 0
	L2_cache_stats_breakdown[L2_WR_ALLOC_R][MISS] = 0
	L2_cache_stats_breakdown[L2_WR_ALLOC_R][RESERVATION_FAIL] = 0
	L2_cache_stats_breakdown[L2_WR_ALLOC_R][SECTOR_MISS] = 0
	L2_cache_stats_breakdown[GLOBAL_ACC_R][TOTAL_ACCESS] = 2368926
	L2_cache_stats_breakdown[GLOBAL_ACC_W][TOTAL_ACCESS] = 8097074
L2_total_cache_reservation_fail_breakdown:
	L2_cache_stats_fail_breakdown[GLOBAL_ACC_R][MSHR_ENRTY_FAIL] = 208691
	L2_cache_stats_fail_breakdown[GLOBAL_ACC_R][MSHR_MERGE_ENRTY_FAIL] = 230509
L2_cache_data_port_util = 0.048
L2_cache_fill_port_util = 0.028

icnt_total_pkts_mem_to_simt=10466000
icnt_total_pkts_simt_to_mem=10466000
LD_mem_lat_dist  0 0 0 0 0 0 0 0 0 0 0 0 0 0 0 0 0 0 0 0 0 0 0 0 0 0 0
ST_mem_lat_dist  0 0 0 0 0 0 0 0 0 0 0 0 0 0 0 0 0 0 0 0 0 0 0 0 0 0 0
----------------------------Interconnect-DETAILS--------------------------------
Req_Network_injected_packets_num = 10466000
Req_Network_cycles = 1070754
Req_Network_injected_packets_per_cycle =       9.7744 
Req_Network_conflicts_per_cycle =       7.6249
Req_Network_conflicts_per_cycle_util =       8.2849
Req_Bank_Level_Parallism =      10.6205
Req_Network_in_buffer_full_per_cycle =       2.0369
Req_Network_in_buffer_avg_util =      27.8815
Req_Network_out_buffer_full_per_cycle =       0.1066
Req_Network_out_buffer_avg_util =      10.3307

Reply_Network_injected_packets_num = 10466000
Reply_Network_cycles = 1070754
Reply_Network_injected_packets_per_cycle =        9.7744
Reply_Network_conflicts_per_cycle =        7.3612
Reply_Network_conflicts_per_cycle_util =       8.0022
Reply_Bank_Level_Parallism =      10.6256
Reply_Network_in_buffer_full_per_cycle =       0.0019
Reply_Network_in_buffer_avg_util =       4.2007
Reply_Network_out_buffer_full_per_cycle =       0.0000
Reply_Network_out_buffer_avg_util =       0.1222
----------------------------END-of-Interconnect-DETAILS-------------------------


gpgpu_simulation_time = 0 days, 3 hrs, 40 min, 22 sec (13222 sec)
gpgpu_simulation_rate = 285562 (inst/sec)
gpgpu_simulation_rate = 80 (cycle/sec)
gpgpu_silicon_slowdown = 14150000x
GPGPU-Sim: synchronize waiting for inactive GPU simulation
GPGPU-Sim API: Stream Manager State
GPGPU-Sim: detected inactive GPU simulation thread
GPGPU-Sim: *** exit detected ***
