

        *** GPGPU-Sim Simulator Version 4.0.0  [build gpgpu-sim_git-commit-ffe0a1a00e984ecce9bf36e17ab94c4de0de8108_modified_0.0] ***


GPGPU-Sim PTX: simulation mode 0 (can change with PTX_SIM_MODE_FUNC environment variable:
               1=functional simulation only, 0=detailed performance simulator)
GPGPU-Sim PTX: overriding embedded ptx with ptx file (PTX_SIM_USE_PTX_FILE is set)
GPGPU-Sim: Configuration options:

-save_embedded_ptx                      0 # saves ptx files embedded in binary as <n>.ptx
-keep                                   0 # keep intermediate files created by GPGPU-Sim when interfacing with external programs
-gpgpu_ptx_save_converted_ptxplus                    0 # Saved converted ptxplus to a file
-gpgpu_occupancy_sm_number                   70 # The SM number to pass to ptxas when getting register usage for computing GPU occupancy. This parameter is required in the config.
-ptx_opcode_latency_int      4,13,4,5,145,21 # Opcode latencies for integers <ADD,MAX,MUL,MAD,DIV,SHFL>Default 1,1,19,25,145,32
-ptx_opcode_latency_fp          4,13,4,5,39 # Opcode latencies for single precision floating points <ADD,MAX,MUL,MAD,DIV>Default 1,1,1,1,30
-ptx_opcode_latency_dp         8,19,8,8,330 # Opcode latencies for double precision floating points <ADD,MAX,MUL,MAD,DIV>Default 8,8,8,8,335
-ptx_opcode_latency_sfu                  100 # Opcode latencies for SFU instructionsDefault 8
-ptx_opcode_latency_tesnor                   64 # Opcode latencies for Tensor instructionsDefault 64
-ptx_opcode_initiation_int          2,2,2,2,8,4 # Opcode initiation intervals for integers <ADD,MAX,MUL,MAD,DIV,SHFL>Default 1,1,4,4,32,4
-ptx_opcode_initiation_fp            2,2,2,2,4 # Opcode initiation intervals for single precision floating points <ADD,MAX,MUL,MAD,DIV>Default 1,1,1,1,5
-ptx_opcode_initiation_dp          4,4,4,4,130 # Opcode initiation intervals for double precision floating points <ADD,MAX,MUL,MAD,DIV>Default 8,8,8,8,130
-ptx_opcode_initiation_sfu                    8 # Opcode initiation intervals for sfu instructionsDefault 8
-ptx_opcode_initiation_tensor                   64 # Opcode initiation intervals for tensor instructionsDefault 64
-cdp_latency         7200,8000,100,12000,1600 # CDP API latency <cudaStreamCreateWithFlags, cudaGetParameterBufferV2_init_perWarp, cudaGetParameterBufferV2_perKernel, cudaLaunchDeviceV2_init_perWarp, cudaLaunchDevicV2_perKernel>Default 7200,8000,100,12000,1600
-network_mode                           2 # Interconnection network mode
-inter_config_file                   mesh # Interconnection network config file
-icnt_in_buffer_limit                  512 # in_buffer_limit
-icnt_out_buffer_limit                  512 # out_buffer_limit
-icnt_subnets                           2 # subnets
-icnt_arbiter_algo                      1 # arbiter_algo
-icnt_verbose                           0 # inct_verbose
-icnt_grant_cycles                      1 # grant_cycles
-gpgpu_ptx_use_cuobjdump                    1 # Use cuobjdump to extract ptx and sass from binaries
-gpgpu_experimental_lib_support                    0 # Try to extract code from cuda libraries [Broken because of unknown cudaGetExportTable]
-checkpoint_option                      0 #  checkpointing flag (0 = no checkpoint)
-checkpoint_kernel                      1 #  checkpointing during execution of which kernel (1- 1st kernel)
-checkpoint_CTA                         0 #  checkpointing after # of CTA (< less than total CTA)
-resume_option                          0 #  resume flag (0 = no resume)
-resume_kernel                          0 #  Resume from which kernel (1= 1st kernel)
-resume_CTA                             0 #  resume from which CTA 
-checkpoint_CTA_t                       0 #  resume from which CTA 
-checkpoint_insn_Y                      0 #  resume from which CTA 
-gpgpu_ptx_convert_to_ptxplus                    0 # Convert SASS (native ISA) to ptxplus and run ptxplus
-gpgpu_ptx_force_max_capability                   70 # Force maximum compute capability
-gpgpu_ptx_inst_debug_to_file                    0 # Dump executed instructions' debug information to file
-gpgpu_ptx_inst_debug_file       inst_debug.txt # Executed instructions' debug output file
-gpgpu_ptx_inst_debug_thread_uid                    1 # Thread UID for executed instructions' debug output
-gpgpu_n_mem_for_l2wb_pcommit                   32 # number of memory modules (e.g. memory controllers) in gpu
-gpgpu_n_sub_partition_per_mchannel_for_l2wb_pcommit                    2 # number of memory subpartition in each memory module
-gpgpu_dl2_bsize_for_l2wb_pcommit                  128 # default 128 bytes
-gpgpu_simd_model                       1 # 1 = post-dominator
-gpgpu_shader_core_pipeline              2048:32 # shader core pipeline config, i.e., {<nthread>:<warpsize>}
-gpgpu_tex_cache:l1  N:4:128:256,L:R:m:N:L,T:512:8,128:2 # per-shader L1 texture cache  (READ-ONLY) config  {<nsets>:<bsize>:<assoc>,<rep>:<wr>:<alloc>:<wr_alloc>,<mshr>:<N>:<merge>,<mq>:<rf>}
-gpgpu_const_cache:l1 N:128:64:8,L:R:f:N:L,S:2:64,4 # per-shader L1 constant memory cache  (READ-ONLY) config  {<nsets>:<bsize>:<assoc>,<rep>:<wr>:<alloc>:<wr_alloc>,<mshr>:<N>:<merge>,<mq>} 
-gpgpu_cache:il1     N:64:128:16,L:R:f:N:L,S:2:48,4 # shader L1 instruction cache config  {<nsets>:<bsize>:<assoc>,<rep>:<wr>:<alloc>:<wr_alloc>,<mshr>:<N>:<merge>,<mq>} 
-gpgpu_cache:dl1     S:1:128:256,L:L:s:N:L,A:256:8,16:0,32 # per-shader L1 data cache config  {<nsets>:<bsize>:<assoc>,<rep>:<wr>:<alloc>:<wr_alloc>,<mshr>:<N>:<merge>,<mq> | none}
-gpgpu_l1_banks                         4 # The number of L1 cache banks
-gpgpu_l1_banks_byte_interleaving                   32 # l1 banks byte interleaving granularity
-gpgpu_l1_banks_hashing_function                    0 # l1 banks hashing function
-gpgpu_l1_latency                      20 # L1 Hit Latency
-gpgpu_smem_latency                    20 # smem Latency
-gpgpu_cache:dl1PrefL1                 none # per-shader L1 data cache config  {<nsets>:<bsize>:<assoc>,<rep>:<wr>:<alloc>:<wr_alloc>,<mshr>:<N>:<merge>,<mq> | none}
-gpgpu_cache:dl1PrefShared                 none # per-shader L1 data cache config  {<nsets>:<bsize>:<assoc>,<rep>:<wr>:<alloc>:<wr_alloc>,<mshr>:<N>:<merge>,<mq> | none}
-gpgpu_gmem_skip_L1D                    0 # global memory access skip L1D cache (implements -Xptxas -dlcm=cg, default=no skip)
-gpgpu_perfect_mem                      0 # enable perfect memory mode (no cache miss)
-n_regfile_gating_group                    4 # group of lanes that should be read/written together)
-gpgpu_clock_gated_reg_file                    0 # enable clock gated reg file for power calculations
-gpgpu_clock_gated_lanes                    0 # enable clock gated lanes for power calculations
-gpgpu_shader_registers                65536 # Number of registers per shader core. Limits number of concurrent CTAs. (default 8192)
-gpgpu_registers_per_block                65536 # Maximum number of registers per CTA. (default 8192)
-gpgpu_ignore_resources_limitation                    0 # gpgpu_ignore_resources_limitation (default 0)
-gpgpu_shader_cta                      32 # Maximum number of concurrent CTAs in shader (default 8)
-gpgpu_num_cta_barriers                   16 # Maximum number of named barriers per CTA (default 16)
-gpgpu_n_clusters                      80 # number of processing clusters
-gpgpu_n_cores_per_cluster                    1 # number of simd cores per cluster
-gpgpu_n_cluster_ejection_buffer_size                   32 # number of packets in ejection buffer
-gpgpu_n_ldst_response_buffer_size                    2 # number of response packets in ld/st unit ejection buffer
-gpgpu_shmem_per_block                65536 # Size of shared memory per thread block or CTA (default 48kB)
-gpgpu_shmem_size                   98304 # Size of shared memory per shader core (default 16kB)
-gpgpu_adaptive_cache_config            536870913 # adaptive_cache_config
-gpgpu_shmem_sizeDefault                98304 # Size of shared memory per shader core (default 16kB)
-gpgpu_shmem_size_PrefL1                16384 # Size of shared memory per shader core (default 16kB)
-gpgpu_shmem_size_PrefShared                16384 # Size of shared memory per shader core (default 16kB)
-gpgpu_shmem_num_banks                   32 # Number of banks in the shared memory in each shader core (default 16)
-gpgpu_shmem_limited_broadcast                    0 # Limit shared memory to do one broadcast per cycle (default on)
-gpgpu_shmem_warp_parts                    1 # Number of portions a warp is divided into for shared memory bank conflict check 
-gpgpu_mem_unit_ports                    1 # The number of memory transactions allowed per core cycle
-gpgpu_shmem_warp_parts                    1 # Number of portions a warp is divided into for shared memory bank conflict check 
-gpgpu_warpdistro_shader                   -1 # Specify which shader core to collect the warp size distribution from
-gpgpu_warp_issue_shader                    0 # Specify which shader core to collect the warp issue distribution from
-gpgpu_local_mem_map                    1 # Mapping from local memory space address to simulated GPU physical address space (default = enabled)
-gpgpu_num_reg_banks                   16 # Number of register banks (default = 8)
-gpgpu_reg_bank_use_warp_id                    0 # Use warp ID in mapping registers to banks (default = off)
-gpgpu_sub_core_model                    1 # Sub Core Volta/Pascal model (default = off)
-gpgpu_enable_specialized_operand_collector                    0 # enable_specialized_operand_collector
-gpgpu_operand_collector_num_units_sp                    4 # number of collector units (default = 4)
-gpgpu_operand_collector_num_units_dp                    0 # number of collector units (default = 0)
-gpgpu_operand_collector_num_units_sfu                    4 # number of collector units (default = 4)
-gpgpu_operand_collector_num_units_int                    0 # number of collector units (default = 0)
-gpgpu_operand_collector_num_units_tensor_core                    4 # number of collector units (default = 4)
-gpgpu_operand_collector_num_units_mem                    2 # number of collector units (default = 2)
-gpgpu_operand_collector_num_units_gen                    8 # number of collector units (default = 0)
-gpgpu_operand_collector_num_in_ports_sp                    1 # number of collector unit in ports (default = 1)
-gpgpu_operand_collector_num_in_ports_dp                    0 # number of collector unit in ports (default = 0)
-gpgpu_operand_collector_num_in_ports_sfu                    1 # number of collector unit in ports (default = 1)
-gpgpu_operand_collector_num_in_ports_int                    0 # number of collector unit in ports (default = 0)
-gpgpu_operand_collector_num_in_ports_tensor_core                    1 # number of collector unit in ports (default = 1)
-gpgpu_operand_collector_num_in_ports_mem                    1 # number of collector unit in ports (default = 1)
-gpgpu_operand_collector_num_in_ports_gen                    8 # number of collector unit in ports (default = 0)
-gpgpu_operand_collector_num_out_ports_sp                    1 # number of collector unit in ports (default = 1)
-gpgpu_operand_collector_num_out_ports_dp                    0 # number of collector unit in ports (default = 0)
-gpgpu_operand_collector_num_out_ports_sfu                    1 # number of collector unit in ports (default = 1)
-gpgpu_operand_collector_num_out_ports_int                    0 # number of collector unit in ports (default = 0)
-gpgpu_operand_collector_num_out_ports_tensor_core                    1 # number of collector unit in ports (default = 1)
-gpgpu_operand_collector_num_out_ports_mem                    1 # number of collector unit in ports (default = 1)
-gpgpu_operand_collector_num_out_ports_gen                    8 # number of collector unit in ports (default = 0)
-gpgpu_coalesce_arch                   60 # Coalescing arch (GT200 = 13, Fermi = 20)
-gpgpu_num_sched_per_core                    4 # Number of warp schedulers per core
-gpgpu_max_insn_issue_per_warp                    1 # Max number of instructions that can be issued per warp in one cycle by scheduler (either 1 or 2)
-gpgpu_dual_issue_diff_exec_units                    1 # should dual issue use two different execution unit resources (Default = 1)
-gpgpu_simt_core_sim_order                    1 # Select the simulation order of cores in a cluster (0=Fix, 1=Round-Robin)
-gpgpu_pipeline_widths 4,4,4,4,4,4,4,4,4,4,8,4,4 # Pipeline widths ID_OC_SP,ID_OC_DP,ID_OC_INT,ID_OC_SFU,ID_OC_MEM,OC_EX_SP,OC_EX_DP,OC_EX_INT,OC_EX_SFU,OC_EX_MEM,EX_WB,ID_OC_TENSOR_CORE,OC_EX_TENSOR_CORE
-gpgpu_tensor_core_avail                    1 # Tensor Core Available (default=0)
-gpgpu_num_sp_units                     4 # Number of SP units (default=1)
-gpgpu_num_dp_units                     4 # Number of DP units (default=0)
-gpgpu_num_int_units                    4 # Number of INT units (default=0)
-gpgpu_num_sfu_units                    4 # Number of SF units (default=1)
-gpgpu_num_tensor_core_units                    4 # Number of tensor_core units (default=1)
-gpgpu_num_mem_units                    1 # Number if ldst units (default=1) WARNING: not hooked up to anything
-gpgpu_scheduler                      gto # Scheduler configuration: < lrr | gto | two_level_active > If two_level_active:<num_active_warps>:<inner_prioritization>:<outer_prioritization>For complete list of prioritization values see shader.h enum scheduler_prioritization_typeDefault: gto
-gpgpu_concurrent_kernel_sm                    0 # Support concurrent kernels on a SM (default = disabled)
-gpgpu_perfect_inst_const_cache                    1 # perfect inst and const cache mode, so all inst and const hits in the cache(default = disabled)
-gpgpu_inst_fetch_throughput                    4 # the number of fetched intruction per warp each cycle
-gpgpu_reg_file_port_throughput                    2 # the number ports of the register file
-specialized_unit_1         0,4,4,4,4,BRA # specialized unit config {<enabled>,<num_units>:<latency>:<initiation>,<ID_OC_SPEC>:<OC_EX_SPEC>,<NAME>}
-specialized_unit_2         0,4,4,4,4,BRA # specialized unit config {<enabled>,<num_units>:<latency>:<initiation>,<ID_OC_SPEC>:<OC_EX_SPEC>,<NAME>}
-specialized_unit_3         0,4,4,4,4,BRA # specialized unit config {<enabled>,<num_units>:<latency>:<initiation>,<ID_OC_SPEC>:<OC_EX_SPEC>,<NAME>}
-specialized_unit_4         0,4,4,4,4,BRA # specialized unit config {<enabled>,<num_units>:<latency>:<initiation>,<ID_OC_SPEC>:<OC_EX_SPEC>,<NAME>}
-specialized_unit_5         0,4,4,4,4,BRA # specialized unit config {<enabled>,<num_units>:<latency>:<initiation>,<ID_OC_SPEC>:<OC_EX_SPEC>,<NAME>}
-specialized_unit_6         0,4,4,4,4,BRA # specialized unit config {<enabled>,<num_units>:<latency>:<initiation>,<ID_OC_SPEC>:<OC_EX_SPEC>,<NAME>}
-specialized_unit_7         0,4,4,4,4,BRA # specialized unit config {<enabled>,<num_units>:<latency>:<initiation>,<ID_OC_SPEC>:<OC_EX_SPEC>,<NAME>}
-specialized_unit_8         0,4,4,4,4,BRA # specialized unit config {<enabled>,<num_units>:<latency>:<initiation>,<ID_OC_SPEC>:<OC_EX_SPEC>,<NAME>}
-gpgpu_perf_sim_memcpy                    1 # Fill the L2 cache on memcpy
-gpgpu_simple_dram_model                    0 # simple_dram_model with fixed latency and BW
-gpgpu_dram_scheduler                    1 # 0 = fifo, 1 = FR-FCFS (defaul)
-gpgpu_dram_partition_queues          64:64:64:64 # i2$:$2d:d2$:$2i
-l2_ideal                               0 # Use a ideal L2 cache that always hit
-gpgpu_cache:dl2     S:32:128:24,L:B:m:L:P,A:192:4,32:0,32 # unified banked L2 data cache config  {<nsets>:<bsize>:<assoc>,<rep>:<wr>:<alloc>:<wr_alloc>,<mshr>:<N>:<merge>,<mq>}
-gpgpu_cache:dl2_texture_only                    0 # L2 cache used for texture only
-gpgpu_n_mem                           32 # number of memory modules (e.g. memory controllers) in gpu
-gpgpu_n_sub_partition_per_mchannel                    2 # number of memory subpartition in each memory module
-gpgpu_n_mem_per_ctrlr                    1 # number of memory chips per memory controller
-gpgpu_memlatency_stat                   14 # track and display latency statistics 0x2 enables MC, 0x4 enables queue logs
-gpgpu_frfcfs_dram_sched_queue_size                   64 # 0 = unlimited (default); # entries per chip
-gpgpu_dram_return_queue_size                  192 # 0 = unlimited (default); # entries per chip
-gpgpu_dram_buswidth                   16 # default = 4 bytes (8 bytes per cycle at DDR)
-gpgpu_dram_burst_length                    2 # Burst length of each DRAM request (default = 4 data bus cycle)
-dram_data_command_freq_ratio                    2 # Frequency ratio between DRAM data bus and command bus (default = 2 times, i.e. DDR)
-gpgpu_dram_timing_opt nbk=16:CCD=1:RRD=3:RCD=12:RAS=28:RP=12:RC=40: CL=12:WL=2:CDLR=3:WR=10:nbkgrp=4:CCDL=2:RTPL=3 # DRAM timing parameters = {nbk:tCCD:tRRD:tRCD:tRAS:tRP:tRC:CL:WL:tCDLR:tWR:nbkgrp:tCCDL:tRTPL}
-gpgpu_l2_rop_latency                  160 # ROP queue latency (default 85)
-dram_latency                         200 # DRAM latency (default 30)
-dram_write_latency                   600 # DRAM write latency (default 100)
-dram_dual_bus_interface                    1 # dual_bus_interface (default = 0) 
-dram_bnk_indexing_policy                    0 # dram_bnk_indexing_policy (0 = normal indexing, 1 = Xoring with the higher bits) (Default = 0)
-dram_bnkgrp_indexing_policy                    1 # dram_bnkgrp_indexing_policy (0 = take higher bits, 1 = take lower bits) (Default = 0)
-dram_seperate_write_queue_enable                    0 # Seperate_Write_Queue_Enable
-dram_write_queue_size             32:28:16 # Write_Queue_Size
-dram_elimnate_rw_turnaround                    0 # elimnate_rw_turnaround i.e set tWTR and tRTW = 0
-icnt_flit_size                        40 # icnt_flit_size
-gpgpu_mem_addr_mapping dramid@8;00000000.00000000.00000000.00000000.0000RRRR.RRRRRRRR.RBBBCCCB.CCCSSSSS # mapping memory address to dram model {dramid@<start bit>;<memory address map>}
-gpgpu_mem_addr_test                    0 # run sweep test to check address mapping for aliased address
-gpgpu_mem_address_mask                    1 # 0 = old addressing mask, 1 = new addressing mask, 2 = new add. mask + flipped bank sel and chip sel bits
-gpgpu_memory_partition_indexing                    0 # 0 = no indexing, 1 = bitwise xoring, 2 = IPoly, 3 = custom indexing
-gpuwattch_xml_file         gpuwattch.xml # GPUWattch XML file
-power_simulation_enabled                    0 # Turn on power simulator (1=On, 0=Off)
-power_per_cycle_dump                    0 # Dump detailed power output each cycle
-power_trace_enabled                    0 # produce a file for the power trace (1=On, 0=Off)
-power_trace_zlevel                     6 # Compression level of the power trace output log (0=no comp, 9=highest)
-steady_power_levels_enabled                    0 # produce a file for the steady power levels (1=On, 0=Off)
-steady_state_definition                  8:4 # allowed deviation:number of samples
-gpgpu_max_cycle                        0 # terminates gpu simulation early (0 = no limit)
-gpgpu_max_insn                         0 # terminates gpu simulation early (0 = no limit)
-gpgpu_max_cta                          0 # terminates gpu simulation early (0 = no limit)
-gpgpu_max_completed_cta                 2700 # terminates gpu simulation early (0 = no limit)
-gpgpu_runtime_stat                   500 # display runtime statistics such as dram utilization {<freq>:<flag>}
-liveness_message_freq                    1 # Minimum number of seconds between simulation liveness messages (0 = always print)
-gpgpu_compute_capability_major                    7 # Major compute capability version number
-gpgpu_compute_capability_minor                    0 # Minor compute capability version number
-gpgpu_flush_l1_cache                    1 # Flush L1 cache at the end of each kernel call
-gpgpu_flush_l2_cache                    0 # Flush L2 cache at the end of each kernel call
-gpgpu_deadlock_detect                    1 # Stop the simulation at deadlock (1=on (default), 0=off)
-gpgpu_ptx_instruction_classification                    0 # if enabled will classify ptx instruction types per kernel (Max 255 kernels now)
-gpgpu_ptx_sim_mode                     0 # Select between Performance (default) or Functional simulation (1)
-gpgpu_clock_domains 1132.0:1132.0:1132.0:850.0 # Clock Domain Frequencies in MhZ {<Core Clock>:<ICNT Clock>:<L2 Clock>:<DRAM Clock>}
-gpgpu_max_concurrent_kernel                    8 # maximum kernels that can run concurrently on GPU
-gpgpu_cflog_interval                    0 # Interval between each snapshot in control flow logger
-visualizer_enabled               48e293453df1fbca85f95b4ef3d81d0c  /home/pli11/Videos/parboil_benchmark/parboil/benchmarks/mri-gridding/build/nvm_ssort_default/mri-gridding
Extracting PTX file and ptxas options    1: mri-gridding.1.sm_70.ptx -arch=sm_70
Extracting PTX file and ptxas options    2: mri-gridding.2.sm_70.ptx -arch=sm_70
      0 # Turn on visualizer output (1=On, 0=Off)
-visualizer_outputfile                 NULL # Specifies the output log file for visualizer
-visualizer_zlevel                      6 # Compression level of the visualizer output log (0=no comp, 9=highest)
-gpgpu_stack_size_limit                 1024 # GPU thread stack size
-gpgpu_heap_size_limit              8388608 # GPU malloc heap size 
-gpgpu_runtime_sync_depth_limit                    2 # GPU device runtime synchronize depth
-gpgpu_runtime_pending_launch_count_limit                 2048 # GPU device runtime pending launch count
-trace_enabled                          0 # Turn on traces
-trace_components                    none # comma seperated list of traces to enable. Complete list found in trace_streams.tup. Default none
-trace_sampling_core                    0 # The core which is printed using CORE_DPRINTF. Default 0
-trace_sampling_memory_partition                   -1 # The memory partition which is printed using MEMPART_DPRINTF. Default -1 (i.e. all)
-enable_ptx_file_line_stats                    1 # Turn on PTX source line statistic profiling. (1 = On)
-ptx_line_stats_filename gpgpu_inst_stats.txt # Output file for PTX source line statistics.
-gpgpu_kernel_launch_latency                 5000 # Kernel launch latency in cycles. Default: 0
-gpgpu_cdp_enabled                      0 # Turn on CDP
-gpgpu_TB_launch_latency                    0 # thread block launch latency in cycles. Default: 0
DRAM Timing Options:
nbk                                    16 # number of banks
CCD                                     1 # column to column delay
RRD                                     3 # minimal delay between activation of rows in different banks
RCD                                    12 # row to column delay
RAS                                    28 # time needed to activate row
RP                                     12 # time needed to precharge (deactivate) row
RC                                     40 # row cycle time
CDLR                                    3 # switching from write to read (changes tWTR)
WR                                     10 # last data-in to row precharge
CL                                     12 # CAS latency
WL                                      2 # Write latency
nbkgrp                                  4 # number of bank groups
CCDL                                    2 # column to column delay between accesses to different bank groups
RTPL                                    3 # read to precharge delay between accesses to different bank groups
Total number of memory sub partition = 64
addr_dec_mask[CHIP]  = 0000000000001f00 	high:13 low:8
addr_dec_mask[BK]    = 00000000000e2000 	high:20 low:13
addr_dec_mask[ROW]   = 00000001fff00000 	high:33 low:20
addr_dec_mask[COL]   = 000000000001c0ff 	high:17 low:0
addr_dec_mask[BURST] = 000000000000001f 	high:5 low:0
sub_partition_id_mask = 0000000000002000
GPGPU-Sim uArch: clock freqs: 1132000000.000000:1132000000.000000:1132000000.000000:850000000.000000
GPGPU-Sim uArch: clock periods: 0.00000000088339222615:0.00000000088339222615:0.00000000088339222615:0.00000000117647058824
*** Initializing Memory Statistics ***
GPGPU-Sim uArch: performance model initialization complete.
self exe links to: /home/pli11/Videos/parboil_benchmark/parboil/benchmarks/mri-gridding/build/nvm_ssort_default/mri-gridding
self exe links to: /home/pli11/Videos/parboil_benchmark/parboil/benchmarks/mri-gridding/build/nvm_ssort_default/mri-gridding
10.1
GPGPU-Sim PTX: __cudaRegisterFatBinary, fat_cubin_handle = 1, filename=default
self exe links to: /home/pli11/Videos/parboil_benchmark/parboil/benchmarks/mri-gridding/build/nvm_ssort_default/mri-gridding
Running md5sum using "md5sum /home/pli11/Videos/parboil_benchmark/parboil/benchmarks/mri-gridding/build/nvm_ssort_default/mri-gridding "
self exe links to: /home/pli11/Videos/parboil_benchmark/parboil/benchmarks/mri-gridding/build/nvm_ssort_default/mri-gridding
Extracting specific PTX file named mri-gridding.1.sm_70.ptx 
Extracting specific PTX file named mri-gridding.2.sm_70.ptx 
EExtracting PTX file and ptxas options    3: mri-gridding.3.sm_70.ptx -arch=sm_70
Extracting PTX file and ptxas options    4: mri-gridding.4.sm_70.ptx -arch=sm_70
xtracting specific PTX file named mri-gridding.3.sm_70.ptx 
Extracting specific PTX file named mri-gridding.4.sm_70.ptx 
self exe links to: /home/pli11/Videos/parboil_benchmark/parboil/benchmarks/mri-gridding/build/nvm_ssort_default/mri-gridding
self exe links to: /home/pli11/Videos/parboil_benchmark/parboil/benchmarks/mri-gridding/build/nvm_ssort_default/mri-gridding
10.1
GPGPU-Sim PTX: __cudaRegisterFatBinary, fat_cubin_handle = 2, filename=default
GPGPU-Sim PTX: __cudaRegisterFunction _Z17gridding_GPU_nvmbP20ReconstructionSamplePjP6float2Pff : hostFun 0x0x404c94, fat_cubin_handle = 2
GPGPU-Sim PTX: Parsing mri-gridding.1.sm_70.ptx
GPGPU-Sim PTX: finished parsing EMBEDDED .ptx file mri-gridding.1.sm_70.ptx
GPGPU-Sim PTX: Parsing mri-gridding.2.sm_70.ptx
GPGPU-Sim PTX: allocating constant region for "cutoff2_c" from 0x100 to 0x104 (global memory space) 1
GPGPU-Sim PTX: allocating constant region for "cutoff_c" from 0x104 to 0x108 (global memory space) 2
GPGPU-Sim PTX: allocating constant region for "gridSize_c" from 0x180 to 0x18c (global memory space) 3
GPGPU-Sim PTX: allocating constant region for "size_xy_c" from 0x18c to 0x190 (global memory space) 4
GPGPU-Sim PTX: allocating constant region for "_1overCutoff2_c" from 0x190 to 0x194 (global memory space) 5
GPGPU-Sim PTX: allocating global region for "NVM_log" from 0x200 to 0x4000200 (global memory space)
GPGPU-Sim PTX: allocating global region for "NVM_flag" from 0x4000200 to 0x4400200 (global memory space)
GPGPU-Sim PTX: instruction assembly for function '_Z14binning_kerneljP20ReconstructionSamplePjS1_S1_jj'...   done.
GPGPU-Sim PTX: instruction assembly for function '_Z19binning_kernel_nvmbjP20ReconstructionSamplePjS1_S1_jj'...   done.
GPGPU-Sim PTX: instruction assembly for function '_Z19binning_kernel_nvmdjP20ReconstructionSamplePjS1_S1_jj'...   done.
GPGPU-Sim PTX: instruction assembly for function '_Z14reorder_kerneliPjP20ReconstructionSampleS1_'...   done.
GPGPU-Sim PTX: instruction assembly for function '_Z19reorder_kernel_nvmaiPjP20ReconstructionSampleS1_'...   done.
GPGPU-Sim PTX: instruction assembly for function '_Z19reorder_kernel_nvmbiPjP20ReconstructionSampleS1_'...   done.
GPGPU-Sim PTX: instruction assembly for function '_Z19reorder_kernel_nvmdiPjP20ReconstructionSampleS1_'...   done.
GPGPU-Sim PTX: instruction assembly for function '_Z19reorder_kernel_nvmgiPjP20ReconstructionSampleS1_'...   done.
GPGPU-Sim PTX: instruction assembly for function '_Z19reorder_kernel_nvmiiPjP20ReconstructionSampleS1_'...   done.
GPGPU-Sim PTX: allocating shared region for "_ZZ12gridding_GPUP20ReconstructionSamplePjP6float2PffE9sharedBin" from 0x0 to 0x600 (shared memory space)
GPGPU-Sim PTX: instruction assembly for function '_Z12gridding_GPUP20ReconstructionSamplePjP6float2Pff'...   done.
GPGPU-Sim PTX: allocating stack frame region for .local "__local_depot10" from 0x0 to 0x8
GPGPU-Sim PTX: allocating shared region for "_ZZ17gridding_GPU_nvmaP20ReconstructionSamplePjP6float2PffE9sharedBin" from 0x0 to 0x600 (shared memory space)
GPGPU-Sim PTX: instruction assembly for function '_Z17gridding_GPU_nvmaP20ReconstructionSamplePjP6float2Pff'...   done.
GPGPU-Sim PTX: allocating stack frame region for .local "__local_depot11" from 0x0 to 0x8
GPGPU-Sim PTX: allocating shared region for "_ZZ17gridding_GPU_nvmbP20ReconstructionSamplePjP6float2PffE9sharedBin" from 0x0 to 0x600 (shared memory space)
GPGPU-Sim PTX: instruction assembly for function '_Z17gridding_GPU_nvmbP20ReconstructionSamplePjP6float2Pff'...   done.
GPGPU-Sim PTX: finished parsing EMBEDDED .ptx file mri-gridding.2.sm_70.ptx
GPGPU-Sim PTX: Parsing mri-gridding.3.sm_70.ptx
GPGPU-Sim PTX: allocating shared region for "s_data" from 0x0 to 0x0 (shared memory space)
GPGPU-Sim PTX: allocating shared region for "_ZZ14scan_L1_kerneljPjS_E6s_data" from 0x0 to 0x1110 (shared memory space)
GPGPU-Sim PTX: instruction assembly for function '_Z14scan_L1_kerneljPjS_'...   done.
GPGPU-Sim PTX: instruction assembly for function '_Z18scan_inter1_kernelPjj'...   done.
GPGPU-Sim PTX: instruction assembly for function '_Z18scan_inter2_kernelPjj'...   done.
GPGPU-Sim PTX: allocating shared region for "_ZZ10uniformAddjPjS_E3uni" from 0x0 to 0x4 (shared memory space)
GPGPU-Sim PTX: instruction assembly for function '_Z10uniformAddjPjS_'...   done.
GPGPU-Sim PTX: finished parsing EMBEDDED .ptx file mri-gridding.3.sm_70.ptx
GPGPU-Sim PTX: Parsing mri-gridding.4.sm_70.ptx
GPGPU-Sim PTX: allocating global region for "NVM_log1" from 0x4400200 to 0x8400200 (global memory space)
GPGPU-Sim PTX: allocating global region for "NVM_log2" from 0x8400200 to 0xc400200 (global memory space)
GPGPU-Sim PTX: allocating global region for "NVM_log3" from 0xc400200 to 0x10400200 (global memory space)
GPGPU-Sim PTX: Warning NVM_flag was declared previous at mri-gridding.2.sm_70.ptx:20 skipping new declaration
GPGPU-Sim PTX: allocating shared region for "_ZZ9splitSortiiPjS_S_E5flags" from 0x0 to 0x1144 (shared memory space)
GPGPU-Sim PTX: allocating shared region for "_ZZ9splitSortiiPjS_S_E7histo_s" from 0x1180 to 0x11c0 (shared memory space)
GPGPU-Sim PTX: instruction assembly for function '_Z9splitSortiiPjS_S_'...   done.
GPGPU-Sim PTX: allocating shared region for "_ZZ14splitSort_nvmoiiPjS_S_E5flags" from 0x0 to 0x1144 (shared memory space)
GPGPU-Sim PTX: allocating shared region for "_ZZ14splitSort_nvmoiiPjS_S_E7histo_s" from 0x1180 to 0x11c0 (shared memory space)
GPGPU-Sim PTX: instruction assembly for function '_Z14splitSort_nvmoiiPjS_S_'...   done.
GPGPU-Sim PTX: allocating shared region for "_ZZ14splitSort_nvmqiiPjS_S_E5flags" from 0x0 to 0x1144 (shared memory space)
GPGPU-Sim PTX: allocating shared region for "_ZZ14splitSort_nvmqiiPjS_S_E7histo_s" from 0x1180 to 0x11c0 (shared memory space)
GPGPU-Sim PTX: instruction assembly for function '_Z14splitSort_nvmqiiPjS_S_'...   done.
GPGPU-Sim PTX: allocating shared region for "_ZZ14splitSort_nvmuiiPjS_S_E5flags" from 0x0 to 0x1144 (shared memory space)
GPGPU-Sim PTX: allocating shared region for "_ZZ14splitSort_nvmuiiPjS_S_E7histo_s" from 0x1180 to 0x11c0 (shared memory space)
GPGPU-Sim PTX: instruction assembly for function '_Z14splitSort_nvmuiiPjS_S_'...   done.
GPGPU-Sim PTX: allocating shared region for "_ZZ14splitSort_nvmwiiPjS_S_E5flags" from 0x0 to 0x1144 (shared memory space)
GPGPU-Sim PTX: allocating shared region for "_ZZ14splitSort_nvmwiiPjS_S_E7histo_s" from 0x1180 to 0x11c0 (shared memory space)
GPGPU-Sim PTX: instruction assembly for function '_Z14splitSort_nvmwiiPjS_S_'...   done.
GPGPU-Sim PTX: allocating shared region for "_ZZ14splitSort_nvm1iiPjS_S_E5flags" from 0x0 to 0x1144 (shared memory space)
GPGPU-Sim PTX: allocating shared region for "_ZZ14splitSort_nvm1iiPjS_S_E7histo_s" from 0x1180 to 0x11c0 (shared memory space)
GPGPU-Sim PTX: instruction assembly for function '_Z14splitSort_nvm1iiPjS_S_'...   done.
GPGPU-Sim PTX: allocating shared region for "_ZZ14splitSort_nvm2iiPjS_S_E5flags" from 0x0 to 0x1144 (shared memory space)
GPGPU-Sim PTX: allocating shared region for "_ZZ14splitSort_nvm2iiPjS_S_E7histo_s" from 0x1180 to 0x11c0 (shared memory space)
GPGPU-Sim PTX: instruction assembly for function '_Z14splitSort_nvm2iiPjS_S_'...   done.
GPGPU-Sim PTX: allocating shared region for "_ZZ14splitSort_nvmbiiPjS_S_E5flags" from 0x0 to 0x1144 (shared memory space)
GPGPU-Sim PTX: allocating shared region for "_ZZ14splitSort_nvmbiiPjS_S_E7histo_s" from 0x1180 to 0x11c0 (shared memory space)
GPGPU-Sim PTX: instruction assembly for function '_Z14splitSort_nvmbiiPjS_S_'...   done.
GPGPU-Sim PTX: allocating shared region for "_ZZ14splitSort_nvmdiiPjS_S_E5flags" from 0x0 to 0x1144 (shared memory space)
GPGPU-Sim PTX: allocating shared region for "_ZZ14splitSort_nvmdiiPjS_S_E7histo_s" from 0x1180 to 0x11c0 (shared memory space)
GPGPU-Sim PTX: instruction assembly for function '_Z14splitSort_nvmdiiPjS_S_'...   done.
GPGPU-Sim PTX: allocating shared region for "_ZZ19splitRearrange_nvmbiiPjS_S_S_S_E7histo_s" from 0x0 to 0x40 (shared memory space)
GPGPU-Sim PTX: allocating shared region for "_ZZ19splitRearrange_nvmbiiPjS_S_S_S_E7array_s" from 0x80 to 0x1080 (shared memory space)
GPGPU-Sim PTX: instruction assembly for function '_Z19splitRearrange_nvmbiiPjS_S_S_S_'...   done.
GPGPU-Sim PTX: allocating shared region for "_ZZ19splitRearrange_nvmdiiPjS_S_S_S_E7histo_s" from 0x0 to 0x40 (shared memory space)
GPGPU-Sim PTX: allocating shared region for "_ZZ19splitRearrange_nvmdiiPjS_S_S_S_E7array_s" from 0x80 to 0x1080 (shared memory space)
GPGPU-Sim PTX: instruction assembly for function '_Z19splitRearrange_nvmdiiPjS_S_S_S_'...   done.
GPGPU-Sim PTX: allocating shared region for "_ZZ19splitRearrange_nvmoiiPjS_S_S_S_E7histo_s" from 0x0 to 0x40 (shared memory space)
GPGPU-Sim PTX: allocating shared region for "_ZZ19splitRearrange_nvmoiiPjS_S_S_S_E7array_s" from 0x80 to 0x1080 (shared memory space)
GPGPU-Sim PTX: instruction assembly for function '_Z19splitRearrange_nvmoiiPjS_S_S_S_'...   done.
GPGPU-Sim PTX: allocating shared region for "_ZZ19splitRearrange_nvmqiiPjS_S_S_S_E7histo_s" from 0x0 to 0x40 (shared memory space)
GPGPU-Sim PTX: allocating shared region for "_ZZ19splitRearrange_nvmqiiPjS_S_S_S_E7array_s" from 0x80 to 0x1080 (shared memory space)
GPGPU-Sim PTX: instruction assembly for function '_Z19splitRearrange_nvmqiiPjS_S_S_S_'...   done.
GPGPU-Sim PTX: allocating shared region for "_ZZ19splitRearrange_nvmuiiPjS_S_S_S_E7histo_s" from 0x0 to 0x40 (shared memory space)
GPGPU-Sim PTX: allocating shared region for "_ZZ19splitRearrange_nvmuiiPjS_S_S_S_E7array_s" from 0x80 to 0x1080 (shared memory space)
GPGPU-Sim PTX: instruction assembly for function '_Z19splitRearrange_nvmuiiPjS_S_S_S_'...   done.
GPGPU-Sim PTX: allocating shared region for "_ZZ19splitRearrange_nvmwiiPjS_S_S_S_E7histo_s" from 0x0 to 0x40 (shared memory space)
GPGPU-Sim PTX: allocating shared region for "_ZZ19splitRearrange_nvmwiiPjS_S_S_S_E7array_s" from 0x80 to 0x1080 (shared memory space)
GPGPU-Sim PTX: instruction assembly for function '_Z19splitRearrange_nvmwiiPjS_S_S_S_'...   done.
GPGPU-Sim PTX: allocating shared region for "_ZZ19splitRearrange_nvm1iiPjS_S_S_S_E7histo_s" from 0x0 to 0x40 (shared memory space)
GPGPU-Sim PTX: allocating shared region for "_ZZ19splitRearrange_nvm1iiPjS_S_S_S_E7array_s" from 0x80 to 0x1080 (shared memory space)
GPGPU-Sim PTX: instruction assembly for function '_Z19splitRearrange_nvm1iiPjS_S_S_S_'...   done.
GPGPU-Sim PTX: allocating shared region for "_ZZ19splitRearrange_nvm2iiPjS_S_S_S_E7histo_s" from 0x0 to 0x40 (shared memory space)
GPGPU-Sim PTX: allocating shared region for "_ZZ19splitRearrange_nvm2iiPjS_S_S_S_E7array_s" from 0x80 to 0x1080 (shared memory space)
GPGPU-Sim PTX: instruction assembly for function '_Z19splitRearrange_nvm2iiPjS_S_S_S_'...   done.
GPGPU-Sim PTX: allocating shared region for "_ZZ14splitSort_nvmgiiPjS_S_E5flags" from 0x0 to 0x1144 (shared memory space)
GPGPU-Sim PTX: allocating shared region for "_ZZ14splitSort_nvmgiiPjS_S_E7histo_s" from 0x1180 to 0x11c0 (shared memory space)
GPGPU-Sim PTX: instruction assembly for function '_Z14splitSort_nvmgiiPjS_S_'...   done.
GPGPU-Sim PTX: allocating shared region for "_ZZ14splitSort_nvm3iiPjS_S_E5flags" from 0x0 to 0x1144 (shared memory space)
GPGPU-Sim PTX: allocating shared region for "_ZZ14splitSort_nvm3iiPjS_S_E7histo_s" from 0x1180 to 0x11c0 (shared memory space)
GPGPU-Sim PTX: instruction assembly for function '_Z14splitSort_nvm3iiPjS_S_'...   done.
GPGPU-Sim PTX: allocating shared region for "_ZZ14splitSort_nvm4iiPjS_S_E5flags" from 0x0 to 0x1144 (shared memory space)
GPGPU-Sim PTX: allocating shared region for "_ZZ14splitSort_nvm4iiPjS_S_E7histo_s" from 0x1180 to 0x11c0 (shared memory space)
GPGPU-Sim PTX: instruction assembly for function '_Z14splitSort_nvm4iiPjS_S_'...   done.
GPGPU-Sim PTX: allocating shared region for "_ZZ14splitSort_nvmiiiPjS_S_E5flags" from 0x0 to 0x1144 (shared memory space)
GPGPU-Sim PTX: allocating shared region for "_ZZ14splitSort_nvmiiiPjS_S_E7histo_s" from 0x1180 to 0x11c0 (shared memory space)
GPGPU-Sim PTX: instruction assembly for function '_Z14splitSort_nvmiiiPjS_S_'...   done.
GPGPU-Sim PTX: allocating shared region for "_ZZ14splitSort_nvm5iiPjS_S_E5flags" from 0x0 to 0x1144 (shared memory space)
GPGPU-Sim PTX: allocating shared region for "_ZZ14splitSort_nvm5iiPjS_S_E7histo_s" from 0x1180 to 0x11c0 (shared memory space)
GPGPU-Sim PTX: instruction assembly for function '_Z14splitSort_nvm5iiPjS_S_'...   done.
GPGPU-Sim PTX: allocating shared region for "_ZZ14splitSort_nvm6iiPjS_S_E5flags" from 0x0 to 0x1144 (shared memory space)
GPGPU-Sim PTX: allocating shared region for "_ZZ14splitSort_nvm6iiPjS_S_E7histo_s" from 0x1180 to 0x11c0 (shared memory space)
GPGPU-Sim PTX: instruction assembly for function '_Z14splitSort_nvm6iiPjS_S_'...   done.
GPGPU-Sim PTX: allocating shared region for "_ZZ19splitRearrange_nvmgiiPjS_S_S_S_E7histo_s" from 0x0 to 0x40 (shared memory space)
GPGPU-Sim PTX: allocating shared region for "_ZZ19splitRearrange_nvmgiiPjS_S_S_S_E7array_s" from 0x80 to 0x1080 (shared memory space)
GPGPU-Sim PTX: instruction assembly for function '_Z19splitRearrange_nvmgiiPjS_S_S_S_'...   done.
GPGPU-Sim PTX: allocating shared region for "_ZZ19splitRearrange_nvm3iiPjS_S_S_S_E7histo_s" from 0x0 to 0x40 (shared memory space)
GPGPU-Sim PTX: allocating shared region for "_ZZ19splitRearrange_nvm3iiPjS_S_S_S_E7array_s" from 0x80 to 0x1080 (shared memory space)
GPGPU-Sim PTX: instruction assembly for function '_Z19splitRearrange_nvm3iiPjS_S_S_S_'...   done.
GPGPU-Sim PTX: allocating shared region for "_ZZ19splitRearrange_nvm4iiPjS_S_S_S_E7histo_s" from 0x0 to 0x40 (shared memory space)
GPGPU-Sim PTX: allocating shared region for "_ZZ19splitRearrange_nvm4iiPjS_S_S_S_E7array_s" from 0x80 to 0x1080 (shared memory space)
GPGPU-Sim PTX: instruction assembly for function '_Z19splitRearrange_nvm4iiPjS_S_S_S_'...   done.
GPGPU-Sim PTX: allocating shared region for "_ZZ19splitRearrange_nvmiiiPjS_S_S_S_E7histo_s" from 0x0 to 0x40 (shared memory space)
GPGPU-Sim PTX: allocating shared region for "_ZZ19splitRearrange_nvmiiiPjS_S_S_S_E7array_s" from 0x80 to 0x1080 (shared memory space)
GPGPU-Sim PTX: instruction assembly for function '_Z19splitRearrange_nvmiiiPjS_S_S_S_'...   done.
GPGPU-Sim PTX: allocating shared region for "_ZZ19splitRearrange_nvm6iiPjS_S_S_S_E7histo_s" from 0x0 to 0x40 (shared memory space)
GPGPU-Sim PTX: allocating shared region for "_ZZ19splitRearrange_nvm6iiPjS_S_S_S_E7array_s" from 0x80 to 0x1080 (shared memory space)
GPGPU-Sim PTX: instruction assembly for function '_Z19splitRearrange_nvm6iiPjS_S_S_S_'...   done.
GPGPU-Sim PTX: allocating shared region for "_ZZ19splitRearrange_nvm5iiPjS_S_S_S_E7histo_s" from 0x0 to 0x40 (shared memory space)
GPGPU-Sim PTX: allocating shared region for "_ZZ19splitRearrange_nvm5iiPjS_S_S_S_E7array_s" from 0x80 to 0x1080 (shared memory space)
GPGPU-Sim PTX: instruction assembly for function '_Z19splitRearrange_nvm5iiPjS_S_S_S_'...   done.
GPGPU-Sim PTX: allocating shared region for "_ZZ14splitRearrangeiiPjS_S_S_S_E7histo_s" from 0x0 to 0x40 (shared memory space)
GPGPU-Sim PTX: allocating shared region for "_ZZ14splitRearrangeiiPjS_S_S_S_E7array_s" from 0x80 to 0x1080 (shared memory space)
GPGPU-Sim PTX: instruction assembly for function '_Z14splitRearrangeiiPjS_S_S_S_'...   done.
GPGPU-Sim PTX: finished parsing EMBEDDED .ptx file mri-gridding.4.sm_70.ptx
GPGPU-Sim PTX: loading globals with explicit initializers... 
GPGPU-Sim PTX: finished loading globals (0 bytes total).
GPGPU-Sim PTX: loading constants with explicit initializers...  done.
GPGPU-Sim PTX: Loading PTXInfo from mri-gridding.1.sm_70.ptx
GPGPU-Sim PTX: Loading PTXInfo from mri-gridding.2.sm_70.ptx
GPGPU-Sim PTX: Binary info : gmem=71303168, cmem=28
GPGPU-Sim PTX: Kernel '_Z17gridding_GPU_nvmbP20ReconstructionSamplePjP6float2Pff' : regs=40, lmem=0, smem=1536, cmem=388
GPGPU-Sim PTX: Kernel '_Z17gridding_GPU_nvmaP20ReconstructionSamplePjP6float2Pff' : regs=40, lmem=0, smem=1536, cmem=388
GPGPU-Sim PTX: Kernel '_Z12gridding_GPUP20ReconstructionSamplePjP6float2Pff' : regs=39, lmem=0, smem=1536, cmem=388
GPGPU-Sim PTX: Kernel '_Z19reorder_kernel_nvmiiPjP20ReconstructionSampleS1_' : regs=24, lmem=0, smem=0, cmem=384
GPGPU-Sim PTX: Kernel '_Z19reorder_kernel_nvmgiPjP20ReconstructionSampleS1_' : regs=24, lmem=0, smem=0, cmem=384
GPGPU-Sim PTX: Kernel '_Z19reorder_kernel_nvmdiPjP20ReconstructionSampleS1_' : regs=22, lmem=0, smem=0, cmem=384
GPGPU-Sim PTX: Kernel '_Z19reorder_kernel_nvmbiPjP20ReconstructionSampleS1_' : regs=22, lmem=0, smem=0, cmem=384
GPGPU-Sim PTX: Kernel '_Z19reorder_kernel_nvmaiPjP20ReconstructionSampleS1_' : regs=22, lmem=0, smem=0, cmem=384
GPGPU-Sim PTX: Kernel '_Z14reorder_kerneliPjP20ReconstructionSampleS1_' : regs=22, lmem=0, smem=0, cmem=384
GPGPU-Sim PTX: Kernel '_Z19binning_kernel_nvmdjP20ReconstructionSamplePjS1_S1_jj' : regs=16, lmem=0, smem=0, cmem=400
GPGPU-Sim PTX: Kernel '_Z19binning_kernel_nvmbjP20ReconstructionSamplePjS1_S1_jj' : regs=16, lmem=0, smem=0, cmem=400
GPGPU-Sim PTX: Kernel '_Z14binning_kerneljP20ReconstructionSamplePjS1_S1_jj' : regs=16, lmem=0, smem=0, cmem=400
GPGPU-Sim PTX: Loading PTXInfo from mri-gridding.3.sm_70.ptx
GPGPU-Sim PTX: Kernel '_Z10uniformAddjPjS_' : regs=8, lmem=0, smem=16, cmem=376
GPGPU-Sim PTX: Kernel '_Z18scan_inter2_kernelPjj' : regs=19, lmem=0, smem=0, cmem=364
GPGPU-Sim PTX: Kernel '_Z18scan_inter1_kernelPjj' : regs=20, lmem=0, smem=0, cmem=364
GPGPU-Sim PTX: Kernel '_Z14scan_L1_kerneljPjS_' : regs=22, lmem=0, smem=4368, cmem=376
GPGPU-Sim PTX: Loading PTXInfo from mri-gridding.4.sm_70.ptx
GPGPU-Sim PTX: Kernel '_Z14splitRearrangeiiPjS_S_S_S_' : regs=28, lmem=0, smem=4160, cmem=400
GPGPU-Sim PTX: Kernel '_Z19splitRearrange_nvm5iiPjS_S_S_S_' : regs=28, lmem=0, smem=4160, cmem=400
GPGPU-Sim PTX: Kernel '_Z19splitRearrange_nvm6iiPjS_S_S_S_' : regs=28, lmem=0, smem=4160, cmem=400
GPGPU-Sim PTX: Kernel '_Z19splitRearrange_nvmiiiPjS_S_S_S_' : regs=30, lmem=0, smem=4160, cmem=400
GPGPU-Sim PTX: Kernel '_Z19splitRearrange_nvm4iiPjS_S_S_S_' : regs=32, lmem=0, smem=4160, cmem=400
GPGPU-Sim PTX: Kernel '_Z19splitRearrange_nvm3iiPjS_S_S_S_' : regs=32, lmem=0, smem=4160, cmem=400
GPGPU-Sim PTX: Kernel '_Z19splitRearrange_nvmgiiPjS_S_S_S_' : regs=32, lmem=0, smem=4160, cmem=400
GPGPU-Sim PTX: Kernel '_Z14splitSort_nvm6iiPjS_S_' : regs=48, lmem=0, smem=4484, cmem=384
GPGPU-Sim PTX: Kernel '_Z14splitSort_nvm5iiPjS_S_' : regs=48, lmem=0, smem=4484, cmem=384
GPGPU-Sim PTX: Kernel '_Z14splitSort_nvmiiiPjS_S_' : regs=48, lmem=0, smem=4484, cmem=384
GPGPU-Sim PTX: Kernel '_Z14splitSort_nvm4iiPjS_S_' : regs=48, lmem=0, smem=4484, cmem=384
GPGPU-Sim PTX: Kernel '_Z14splitSort_nvm3iiPjS_S_' : regs=48, lmem=0, smem=4484, cmem=384
GPGPU-Sim PTX: Kernel '_Z14splitSort_nvmgiiPjS_S_' : regs=43, lmem=0, smem=4484, cmem=384
GPGPU-Sim PTX: Kernel '_Z19splitRearrange_nvm2iiPjS_S_S_S_' : regs=30, lmem=0, smem=4160, cmem=400
GPGPU-Sim PTX: Kernel '_Z19splitRearrange_nvm1iiPjS_S_S_S_' : regs=30, lmem=0, smem=4160, cmem=400
GPGPU-Sim PTX: Kernel '_Z19splitRearrange_nvmwiiPjS_S_S_S_' : regs=28, lmem=0, smem=4160, cmem=400
GPGPU-Sim PTX: Kernel '_Z19splitRearrange_nvmuiiPjS_S_S_S_' : regs=26, lmem=0, smem=4160, cmem=400
GPGPU-Sim PTX: Kernel '_Z19splitRearrange_nvmqiiPjS_S_S_S_' : regs=28, lmem=0, smem=4160, cmem=400
GPGPU-Sim PTX: Kernel '_Z19splitRearrange_nvmoiiPjS_S_S_S_' : regs=26, lmem=0, smem=4160, cmem=400
GPGPU-Sim PTX: Kernel '_Z19splitRearrange_nvmdiiPjS_S_S_S_' : regs=28, lmem=0, smem=4160, cmem=400
GPGPU-Sim PTX: Kernel '_Z19splitRearrange_nvmbiiPjS_S_S_S_' : regs=26, lmem=0, smem=4160, cmem=400
GPGPU-Sim PTX: Kernel '_Z14splitSort_nvmdiiPjS_S_' : regs=43, lmem=0, smem=4484, cmem=384
GPGPU-Sim PTX: Kernel '_Z14splitSort_nvmbiiPjS_S_' : regs=43, lmem=0, smem=4484, cmem=384
GPGPU-Sim PTX: Kernel '_Z14splitSort_nvm2iiPjS_S_' : regs=43, lmem=0, smem=4484, cmem=384
GPGPU-Sim PTX: Kernel '_Z14splitSort_nvm1iiPjS_S_' : regs=43, lmem=0, smem=4484, cmem=384
GPGPU-Sim PTX: Kernel '_Z14splitSort_nvmwiiPjS_S_' : regs=43, lmem=0, smem=4484, cmem=384
GPGPU-Sim PTX: Kernel '_Z14splitSort_nvmuiiPjS_S_' : regs=43, lmem=0, smem=4484, cmem=384
GPGPU-Sim PTX: Kernel '_Z14splitSort_nvmqiiPjS_S_' : regs=43, lmem=0, smem=4484, cmem=384
GPGPU-Sim PTX: Kernel '_Z14splitSort_nvmoiiPjS_S_' : regs=43, lmem=0, smem=4484, cmem=384
GPGPU-Sim PTX: Kernel '_Z9splitSortiiPjS_S_' : regs=43, lmem=0, smem=4484, cmem=384
GPGPU-Sim PTX: __cudaRegisterFunction _Z17gridding_GPU_nvmaP20ReconstructionSamplePjP6float2Pff : hostFun 0x0x404aee, fat_cubin_handle = 2
GPGPU-Sim PTX: __cudaRegisterFunction _Z12gridding_GPUP20ReconstructionSamplePjP6float2Pff : hostFun 0x0x404948, fat_cubin_handle = 2
GPGPU-Sim PTX: __cudaRegisterFunction _Z19reorder_kernel_nvmiiPjP20ReconstructionSampleS1_ : hostFun 0x0x4047b2, fat_cubin_handle = 2
GPGPU-Sim PTX: __cudaRegisterFunction _Z19reorder_kernel_nvmgiPjP20ReconstructionSampleS1_ : hostFun 0x0x40463d, fat_cubin_handle = 2
GPGPU-Sim PTX: __cudaRegisterFunction _Z19reorder_kernel_nvmdiPjP20ReconstructionSampleS1_ : hostFun 0x0x4044c8, fat_cubin_handle = 2
GPGPU-Sim PTX: __cudaRegisterFunction _Z19reorder_kernel_nvmbiPjP20ReconstructionSampleS1_ : hostFun 0x0x404353, fat_cubin_handle = 2
GPGPU-Sim PTX: __cudaRegisterFunction _Z19reorder_kernel_nvmaiPjP20ReconstructionSampleS1_ : hostFun 0x0x4041de, fat_cubin_handle = 2
GPGPU-Sim PTX: __cudaRegisterFunction _Z14reorder_kerneliPjP20ReconstructionSampleS1_ : hostFun 0x0x404069, fat_cubin_handle = 2
GPGPU-Sim PTX: __cudaRegisterFunction _Z19binning_kernel_nvmdjP20ReconstructionSamplePjS1_S1_jj : hostFun 0x0x403ede, fat_cubin_handle = 2
GPGPU-Sim PTX: __cudaRegisterFunction _Z19binning_kernel_nvmbjP20ReconstructionSamplePjS1_S1_jj : hostFun 0x0x403ce5, fat_cubin_handle = 2
GPGPU-Sim PTX: __cudaRegisterFunction _Z14binning_kerneljP20ReconstructionSamplePjS1_S1_jj : hostFun 0x0x403aec, fat_cubin_handle = 2
GPGPU-Sim PTX: __cudaRegisterVar: hostVar = 0x61c470; deviceAddress = cutoff2_c; deviceName = cutoff2_c
GPGPU-Sim PTX: __cudaRegisterVar: Registering const memory space of 4 bytes
GPGPU-Sim PTX registering constant cutoff2_c (4 bytes) to name mapping
GPGPU-Sim PTX: __cudaRegisterVar: hostVar = 0x61c474; deviceAddress = cutoff_c; deviceName = cutoff_c
GPGPU-Sim PTX: __cudaRegisterVar: Registering const memory space of 4 bytes
GPGPU-Sim PTX registering constant cutoff_c (4 bytes) to name mapping
GPGPU-Sim PTX: __cudaRegisterVar: hostVar = 0x61c478; deviceAddress = gridSize_c; deviceName = gridSize_c
GPGPU-Sim PTX: __cudaRegisterVar: Registering const memory space of 12 bytes
GPGPU-Sim PTX registering constant gridSize_c (12 bytes) to name mapping
GPGPU-Sim PTX: __cudaRegisterVar: hostVar = 0x61c484; deviceAddress = size_xy_c; deviceName = size_xy_c
GPGPU-Sim PTX: __cudaRegisterVar: Registering const memory space of 4 bytes
GPGPU-Sim PTX registering constant size_xy_c (4 bytes) to name mapping
GPGPU-Sim PTX: __cudaRegisterVar: hostVar = 0x61c488; deviceAddress = _1overCutoff2_c; deviceName = _1overCutoff2_c
GPGPU-Sim PTX: __cudaRegisterVar: Registering const memory space of 4 bytes
GPGPU-Sim PTX registering constant _1overCutoff2_c (4 bytes) to name mapping
GPGPU-Sim PTX: __cudaRegisterVar: hostVar = 0x61c4a0; deviceAddress = NVM_log; deviceName = NVM_log
GPGPU-Sim PTX: __cudaRegisterVar: Registering const memory space of 67108864 bytes
GPGPU-Sim PTX registering global NVM_log hostVar to name mapping
GPGPU-Sim PTX: __cudaRegisterVar: hostVar = 0x461c4a0; deviceAddress = NVM_flag; deviceName = NVM_flag
GPGPU-Sim PTX: __cudaRegisterVar: Registering const memory space of 4194304 bytes
GPGPU-Sim PTX registering global NVM_flag hostVar to name mapping
self exe links to: /home/pli11/Videos/parboil_benchmark/parboil/benchmarks/mri-gridding/build/nvm_ssort_default/mri-gridding
self exe links to: /home/pli11/Videos/parboil_benchmark/parboil/benchmarks/mri-gridding/build/nvm_ssort_default/mri-gridding
10.1
GPGPU-Sim PTX: __cudaRegisterFatBinary, fat_cubin_handle = 3, filename=default
GPGPU-Sim PTX: __cudaRegisterFunction _Z10uniformAddjPjS_ : hostFun 0x0x405ec1, fat_cubin_handle = 3
GPGPU-Sim PTX: __cudaRegisterFunction _Z18scan_inter2_kernelPjj : hostFun 0x0x405d6f, fat_cubin_handle = 3
GPGPU-Sim PTX: __cudaRegisterFunction _Z18scan_inter1_kernelPjj : hostFun 0x0x405c33, fat_cubin_handle = 3
GPGPU-Sim PTX: __cudaRegisterFunction _Z14scan_L1_kerneljPjS_ : hostFun 0x0x405aef, fat_cubin_handle = 3
self exe links to: /home/pli11/Videos/parboil_benchmark/parboil/benchmarks/mri-gridding/build/nvm_ssort_default/mri-gridding
self exe links to: /home/pli11/Videos/parboil_benchmark/parboil/benchmarks/mri-gridding/build/nvm_ssort_default/mri-gridding
10.1
GPGPU-Sim PTX: __cudaRegisterFatBinary, fat_cubin_handle = 4, filename=default
GPGPU-Sim PTX: __cudaRegisterFunction _Z14splitRearrangeiiPjS_S_S_S_ : hostFun 0x0x40a3f5, fat_cubin_handle = 4
GPGPU-Sim PTX: __cudaRegisterFunction _Z19splitRearrange_nvm5iiPjS_S_S_S_ : hostFun 0x0x40a1fd, fat_cubin_handle = 4
GPGPU-Sim PTX: __cudaRegisterFunction _Z19splitRearrange_nvm6iiPjS_S_S_S_ : hostFun 0x0x40a005, fat_cubin_handle = 4
GPGPU-Sim PTX: __cudaRegisterFunction _Z19splitRearrange_nvmiiiPjS_S_S_S_ : hostFun 0x0x409e0d, fat_cubin_handle = 4
GPGPU-Sim PTX: __cudaRegisterFunction _Z19splitRearrange_nvm4iiPjS_S_S_S_ : hostFun 0x0x409c15, fat_cubin_handle = 4
GPGPU-Sim PTX: __cudaRegisterFunction _Z19splitRearrange_nvm3iiPjS_S_S_S_ : hostFun 0x0x409a1d, fat_cubin_handle = 4
GPGPU-Sim PTX: __cudaRegisterFunction _Z19splitRearrange_nvmgiiPjS_S_S_S_ : hostFun 0x0x409825, fat_cubin_handle = 4
GPGPU-Sim PTX: __cudaRegisterFunction _Z14splitSort_nvm6iiPjS_S_ : hostFun 0x0x40963a, fat_cubin_handle = 4
GPGPU-Sim PTX: __cudaRegisterFunction _Z14splitSort_nvm5iiPjS_S_ : hostFun 0x0x4094a4, fat_cubin_handle = 4
GPGPU-Sim PTX: __cudaRegisterFunction _Z14splitSort_nvmiiiPjS_S_ : hostFun 0x0x40930e, fat_cubin_handle = 4
GPGPU-Sim PTX: __cudaRegisterFunction _Z14splitSort_nvm4iiPjS_S_ : hostFun 0x0x409178, fat_cubin_handle = 4
GPGPU-Sim PTX: __cudaRegisterFunction _Z14splitSort_nvm3iiPjS_S_ : hostFun 0x0x408fe2, fat_cubin_handle = 4
GPGPU-Sim PTX: __cudaRegisterFunction _Z14splitSort_nvmgiiPjS_S_ : hostFun 0x0x408e4c, fat_cubin_handle = 4
GPGPU-Sim PTX: __cudaRegisterFunction _Z19splitRearrange_nvm2iiPjS_S_S_S_ : hostFun 0x0x408ca9, fat_cubin_handle = 4
GPGPU-Sim PTX: __cudaRegisterFunction _Z19splitRearrange_nvm1iiPjS_S_S_S_ : hostFun 0x0x408ab1, fat_cubin_handle = 4
GPGPU-Sim PTX: __cudaRegisterFunction _Z19splitRearrange_nvmwiiPjS_S_S_S_ : hostFun 0x0x4088b9, fat_cubin_handle = 4
GPGPU-Sim PTX: __cudaRegisterFunction _Z19splitRearrange_nvmuiiPjS_S_S_S_ : hostFun 0x0x4086c1, fat_cubin_handle = 4
GPGPU-Sim PTX: __cudaRegisterFunction _Z19splitRearrange_nvmqiiPjS_S_S_S_ : hostFun 0x0x4084c9, fat_cubin_handle = 4
GPGPU-Sim PTX: __cudaRegisterFunction _Z19splitRearrange_nvmoiiPjS_S_S_S_ : hostFun 0x0x4082d1, fat_cubin_handle = 4
GPGPU-Sim PTX: __cudaRegisterFunction _Z19splitRearrange_nvmdiiPjS_S_S_S_ : hostFun 0x0x4080d9, fat_cubin_handle = 4
GPGPU-Sim PTX: __cudaRegisterFunction _Z19splitRearrange_nvmbiiPjS_S_S_S_ : hostFun 0x0x407ee1, fat_cubin_handle = 4
GPGPU-Sim PTX: __cudaRegisterFunction _Z14splitSort_nvmdiiPjS_S_ : hostFun 0x0x407cf6, fat_cubin_handle = 4
GPGPU-Sim PTX: __cudaRegisterFunction _Z14splitSort_nvmbiiPjS_S_ : hostFun 0x0x407b60, fat_cubin_handle = 4
GPGPU-Sim PTX: __cudaRegisterFunction _Z14splitSort_nvm2iiPjS_S_ : hostFun 0x0x4079ca, fat_cubin_handle = 4
GPGPU-Sim PTX: __cudaRegisterFunction _Z14splitSort_nvm1iiPjS_S_ : hostFun 0x0x407834, fat_cubin_handle = 4
GPGPU-Sim PTX: __cudaRegisterFunction _Z14splitSort_nvmwiiPjS_S_ : hostFun 0x0x40769e, fat_cubin_handle = 4
GPGPU-Sim PTX: __cudaRegisterFunction _Z14splitSort_nvmuiiPjS_S_ : hostFun 0x0x407508, fat_cubin_handle = 4
GPGPU-Sim PTX: __cudaRegisterFunction _Z14splitSort_nvmqiiPjS_S_ : hostFun 0x0x407372, fat_cubin_handle = 4
GPGPU-Sim PTX: __cudaRegisterFunction _Z14splitSort_nvmoiiPjS_S_ : hostFun 0x0x4071dc, fat_cubin_handle = 4
GPGPU-Sim PTX: __cudaRegisterFunction _Z9splitSortiiPjS_S_ : hostFun 0x0x407046, fat_cubin_handle = 4
GPGPU-Sim PTX: __cudaRegisterVar: hostVar = 0x4a1c580; deviceAddress = NVM_log1; deviceName = NVM_log1
GPGPU-Sim PTX: __cudaRegisterVar: Registering const memory space of 67108864 bytes
GPGPU-Sim PTX registering global NVM_log1 hostVar to name mapping
GPGPU-Sim PTX: __cudaRegisterVar: hostVar = 0x8a1c580; deviceAddress = NVM_log2; deviceName = NVM_log2
GPGPU-Sim PTX: __cudaRegisterVar: Registering const memory space of 67108864 bytes
GPGPU-Sim PTX registering global NVM_log2 hostVar to name mapping
GPGPU-Sim PTX: __cudaRegisterVar: hostVar = 0xca1c580; deviceAddress = NVM_log3; deviceName = NVM_log3
GPGPU-Sim PTX: __cudaRegisterVar: Registering const memory space of 67108864 bytes
GPGPU-Sim PTX registering global NVM_log3 hostVar to name mapping
GPGPU-Sim PTX: __cudaRegisterVar: hostVar = 0x10a1c580; deviceAddress = NVM_flag; deviceName = NVM_flag
GPGPU-Sim PTX: __cudaRegisterVar: Registering const memory space of 4194304 bytes
GPGPU-Sim PTX registering global NVM_flag hostVar to name mapping

Reading parameters
  Total amount of GPU memory: 2147483648 bytes
  Number of samples = 2655910
  Grid Size = 256x256x256
  Input Matrix Size = 60x60x60
  Recon Matrix Size = 60x60x60
  Kernel Width = 5.000000
  KMax = 150.00 150.00 150.00
  Oversampling = 5.000000
  GPU Binsize = 32
  Use LUT = Yes
Reading input data from files
Generating Look-Up Table
Running gold version
Running CUDA version
GPGPU-Sim PTX: cudaMemcpyToSymbol: symbol = 0x61c470
GPGPU-Sim PTX: starting gpgpu_ptx_sim_memcpy_symbol with hostVar 0x0x61c470
GPGPU-Sim PTX: gpgpu_ptx_sim_memcpy_symbol: Found PTX symbol w/ hostVar=0x61c470
GPGPU-Sim PTX: gpgpu_ptx_sim_memcpy_symbol: copying const memory 4 bytes  to  symbol cutoff2_c+0 @0x100 ...
GPGPU-Sim PTX: cudaMemcpyToSymbol: symbol = 0x61c474
GPGPU-Sim PTX: starting gpgpu_ptx_sim_memcpy_symbol with hostVar 0x0x61c474
GPGPU-Sim PTX: gpgpu_ptx_sim_memcpy_symbol: Found PTX symbol w/ hostVar=0x61c474
GPGPU-Sim PTX: gpgpu_ptx_sim_memcpy_symbol: copying const memory 4 bytes  to  symbol cutoff_c+0 @0x104 ...
GPGPU-Sim PTX: cudaMemcpyToSymbol: symbol = 0x61c478
GPGPU-Sim PTX: starting gpgpu_ptx_sim_memcpy_symbol with hostVar 0x0x61c478
GPGPU-Sim PTX: gpgpu_ptx_sim_memcpy_symbol: Found PTX symbol w/ hostVar=0x61c478
GPGPU-Sim PTX: gpgpu_ptx_sim_memcpy_symbol: copying const memory 12 bytes  to  symbol gridSize_c+0 @0x180 ...
GPGPU-Sim PTX: cudaMemcpyToSymbol: symbol = 0x61c484
GPGPU-Sim PTX: starting gpgpu_ptx_sim_memcpy_symbol with hostVar 0x0x61c484
GPGPU-Sim PTX: gpgpu_ptx_sim_memcpy_symbol: Found PTX symbol w/ hostVar=0x61c484
GPGPU-Sim PTX: gpgpu_ptx_sim_memcpy_symbol: copying const memory 4 bytes  to  symbol size_xy_c+0 @0x18c ...
GPGPU-Sim PTX: cudaMemcpyToSymbol: symbol = 0x61c488
GPGPU-Sim PTX: starting gpgpu_ptx_sim_memcpy_symbol with hostVar 0x0x61c488
GPGPU-Sim PTX: gpgpu_ptx_sim_memcpy_symbol: Found PTX symbol w/ hostVar=0x61c488
GPGPU-Sim PTX: gpgpu_ptx_sim_memcpy_symbol: copying const memory 4 bytes  to  symbol _1overCutoff2_c+0 @0x190 ...
event update
GPGPU-Sim: synchronize waiting for inactive GPU simulation
GPGPU-Sim API: Stream Manager State
GPGPU-Sim: detected inactive GPU simulation thread
GPGPU-Sim: synchronize waiting for inactive GPU simulation
GPGPU-Sim API: Stream Manager State
GPGPU-Sim: detected inactive GPU simulation thread
GPGPU-Sim: synchronize waiting for inactive GPU simulation
GPGPU-Sim API: Stream Manager State
GPGPU-Sim: detected inactive GPU simulation thread
GPGPU-Sim PTX: Setting up arguments for 4 bytes starting at 0x7ffe1e4dfe6c..
GPGPU-Sim PTX: Setting up arguments for 4 bytes starting at 0x7ffe1e4dfe68..
GPGPU-Sim PTX: Setting up arguments for 8 bytes starting at 0x7ffe1e4dfe60..
GPGPU-Sim PTX: Setting up arguments for 8 bytes starting at 0x7ffe1e4dfe58..
GPGPU-Sim PTX: Setting up arguments for 8 bytes starting at 0x7ffe1e4dfe50..

GPGPU-Sim PTX: cudaLaunch for 0x0x4094a4 (mode=performance simulation) on stream 0
GPGPU-Sim PTX: finding reconvergence points for '_Z14splitSort_nvm5iiPjS_S_'...
GPGPU-Sim PTX: Finding dominators for '_Z14splitSort_nvm5iiPjS_S_'...
GPGPU-Sim PTX: Finding immediate dominators for '_Z14splitSort_nvm5iiPjS_S_'...
GPGPU-Sim PTX: Finding postdominators for '_Z14splitSort_nvm5iiPjS_S_'...
GPGPU-Sim PTX: Finding immediate postdominators for '_Z14splitSort_nvm5iiPjS_S_'...
GPGPU-Sim PTX: pre-decoding instructions for '_Z14splitSort_nvm5iiPjS_S_'...
GPGPU-Sim PTX: reconvergence points for _Z14splitSort_nvm5iiPjS_S_...
GPGPU-Sim PTX:  1 (potential) branch divergence @  PC=0x10b40 (mri-gridding.4.sm_70.ptx:7782) @%p2 bra BB21_2;
GPGPU-Sim PTX:    immediate post dominator      @  PC=0x10b70 (mri-gridding.4.sm_70.ptx:7791) shl.b32 %r86, %r3, 2;
GPGPU-Sim PTX:  2 (potential) branch divergence @  PC=0x10b90 (mri-gridding.4.sm_70.ptx:7795) @%p3 bra BB21_4;
GPGPU-Sim PTX:    immediate post dominator      @  PC=0x10ba8 (mri-gridding.4.sm_70.ptx:7801) bar.sync 0;
GPGPU-Sim PTX:  3 (potential) branch divergence @  PC=0x11048 (mri-gridding.4.sm_70.ptx:7951) @%p4 bra BB21_9;
GPGPU-Sim PTX:    immediate post dominator      @  PC=0x11138 (mri-gridding.4.sm_70.ptx:7988) setp.ne.s32%p7, %r3, 0;
GPGPU-Sim PTX:  4 (potential) branch divergence @  PC=0x11060 (mri-gridding.4.sm_70.ptx:7956) @%p5 bra BB21_8;
GPGPU-Sim PTX:    immediate post dominator      @  PC=0x11118 (mri-gridding.4.sm_70.ptx:7982) shl.b32 %r349, %r349, 1;
GPGPU-Sim PTX:  5 (potential) branch divergence @  PC=0x11130 (mri-gridding.4.sm_70.ptx:7985) @%p6 bra BB21_6;
GPGPU-Sim PTX:    immediate post dominator      @  PC=0x11138 (mri-gridding.4.sm_70.ptx:7988) setp.ne.s32%p7, %r3, 0;
GPGPU-Sim PTX:  6 (potential) branch divergence @  PC=0x11140 (mri-gridding.4.sm_70.ptx:7989) @%p7 bra BB21_11;
GPGPU-Sim PTX:    immediate post dominator      @  PC=0x11178 (mri-gridding.4.sm_70.ptx:7999) mov.u32 %r350, %r90;
GPGPU-Sim PTX:  7 (potential) branch divergence @  PC=0x11180 (mri-gridding.4.sm_70.ptx:8000) @%p4 bra BB21_15;
GPGPU-Sim PTX:    immediate post dominator      @  PC=0x11280 (mri-gridding.4.sm_70.ptx:8039) bar.sync 0;
GPGPU-Sim PTX:  8 (potential) branch divergence @  PC=0x111a0 (mri-gridding.4.sm_70.ptx:8006) @%p9 bra BB21_14;
GPGPU-Sim PTX:    immediate post dominator      @  PC=0x11268 (mri-gridding.4.sm_70.ptx:8034) shl.b32 %r350, %r350, 1;
GPGPU-Sim PTX:  9 (potential) branch divergence @  PC=0x11278 (mri-gridding.4.sm_70.ptx:8036) @%p10 bra BB21_12;
GPGPU-Sim PTX:    immediate post dominator      @  PC=0x11280 (mri-gridding.4.sm_70.ptx:8039) bar.sync 0;
GPGPU-Sim PTX: 10 (potential) branch divergence @  PC=0x11400 (mri-gridding.4.sm_70.ptx:8087) @%p15 bra BB21_5;
GPGPU-Sim PTX:    immediate post dominator      @  PC=0x11408 (mri-gridding.4.sm_70.ptx:8089) @%p2 bra BB21_18;
GPGPU-Sim PTX: 11 (potential) branch divergence @  PC=0x11408 (mri-gridding.4.sm_70.ptx:8089) @%p2 bra BB21_18;
GPGPU-Sim PTX:    immediate post dominator      @  PC=0x11568 (mri-gridding.4.sm_70.ptx:8153) membar.gl;
GPGPU-Sim PTX: 12 (potential) branch divergence @  PC=0x115b8 (mri-gridding.4.sm_70.ptx:8164) @%p17 bra BB21_20;
GPGPU-Sim PTX:    immediate post dominator      @  PC=0x11638 (mri-gridding.4.sm_70.ptx:8189) @%p2 bra BB21_22;
GPGPU-Sim PTX: 13 (potential) branch divergence @  PC=0x11638 (mri-gridding.4.sm_70.ptx:8189) @%p2 bra BB21_22;
GPGPU-Sim PTX:    immediate post dominator      @  PC=0x11700 (mri-gridding.4.sm_70.ptx:8217) mov.u32 %r69, %nctaid.x;
GPGPU-Sim PTX: 14 (potential) branch divergence @  PC=0x11710 (mri-gridding.4.sm_70.ptx:8219) @%p3 bra BB21_24;
GPGPU-Sim PTX:    immediate post dominator      @  PC=0x11738 (mri-gridding.4.sm_70.ptx:8227) setp.eq.s32%p1, %r67, %r68;
GPGPU-Sim PTX: 15 (potential) branch divergence @  PC=0x11830 (mri-gridding.4.sm_70.ptx:8278) @!%p1 bra BB21_26;
GPGPU-Sim PTX:    immediate post dominator      @  PC=0x118a8 (mri-gridding.4.sm_70.ptx:8303) ret;
GPGPU-Sim PTX: 16 (potential) branch divergence @  PC=0x11838 (mri-gridding.4.sm_70.ptx:8279) bra.uni BB21_25;
GPGPU-Sim PTX:    immediate post dominator      @  PC=0x11840 (mri-gridding.4.sm_70.ptx:8282) mov.u32 %r318, %ctaid.y;
GPGPU-Sim PTX: ... end of reconvergence points for _Z14splitSort_nvm5iiPjS_S_
GPGPU-Sim PTX: ... done pre-decoding instructions for '_Z14splitSort_nvm5iiPjS_S_'.
GPGPU-Sim PTX: pushing kernel '_Z14splitSort_nvm5iiPjS_S_' to stream 0, gridDim= (2594,1,1) blockDim = (256,1,1) 
GPGPU-Sim uArch: Shader 0 bind to kernel 1 '_Z14splitSort_nvm5iiPjS_S_'
GPGPU-Sim uArch: CTA/core = 5, limited by: regs
GPGPU-Sim: Reconfigure L1 cache to 96KB
GPGPU-Sim uArch: Shader 1 bind to kernel 1 '_Z14splitSort_nvm5iiPjS_S_'
GPGPU-Sim uArch: Shader 2 bind to kernel 1 '_Z14splitSort_nvm5iiPjS_S_'
GPGPU-Sim uArch: Shader 3 bind to kernel 1 '_Z14splitSort_nvm5iiPjS_S_'
GPGPU-Sim uArch: Shader 4 bind to kernel 1 '_Z14splitSort_nvm5iiPjS_S_'
GPGPU-Sim uArch: Shader 5 bind to kernel 1 '_Z14splitSort_nvm5iiPjS_S_'
GPGPU-Sim uArch: Shader 6 bind to kernel 1 '_Z14splitSort_nvm5iiPjS_S_'
GPGPU-Sim uArch: Shader 7 bind to kernel 1 '_Z14splitSort_nvm5iiPjS_S_'
GPGPU-Sim uArch: Shader 8 bind to kernel 1 '_Z14splitSort_nvm5iiPjS_S_'
GPGPU-Sim uArch: Shader 9 bind to kernel 1 '_Z14splitSort_nvm5iiPjS_S_'
GPGPU-Sim uArch: Shader 10 bind to kernel 1 '_Z14splitSort_nvm5iiPjS_S_'
GPGPU-Sim uArch: Shader 11 bind to kernel 1 '_Z14splitSort_nvm5iiPjS_S_'
GPGPU-Sim uArch: Shader 12 bind to kernel 1 '_Z14splitSort_nvm5iiPjS_S_'
GPGPU-Sim uArch: Shader 13 bind to kernel 1 '_Z14splitSort_nvm5iiPjS_S_'
GPGPU-Sim uArch: Shader 14 bind to kernel 1 '_Z14splitSort_nvm5iiPjS_S_'
GPGPU-Sim uArch: Shader 15 bind to kernel 1 '_Z14splitSort_nvm5iiPjS_S_'
GPGPU-Sim uArch: Shader 16 bind to kernel 1 '_Z14splitSort_nvm5iiPjS_S_'
GPGPU-Sim uArch: Shader 17 bind to kernel 1 '_Z14splitSort_nvm5iiPjS_S_'
GPGPU-Sim uArch: Shader 18 bind to kernel 1 '_Z14splitSort_nvm5iiPjS_S_'
GPGPU-Sim uArch: Shader 19 bind to kernel 1 '_Z14splitSort_nvm5iiPjS_S_'
GPGPU-Sim uArch: Shader 20 bind to kernel 1 '_Z14splitSort_nvm5iiPjS_S_'
GPGPU-Sim uArch: Shader 21 bind to kernel 1 '_Z14splitSort_nvm5iiPjS_S_'
GPGPU-Sim uArch: Shader 22 bind to kernel 1 '_Z14splitSort_nvm5iiPjS_S_'
GPGPU-Sim uArch: Shader 23 bind to kernel 1 '_Z14splitSort_nvm5iiPjS_S_'
GPGPU-Sim uArch: Shader 24 bind to kernel 1 '_Z14splitSort_nvm5iiPjS_S_'
GPGPU-Sim uArch: Shader 25 bind to kernel 1 '_Z14splitSort_nvm5iiPjS_S_'
GPGPU-Sim uArch: Shader 26 bind to kernel 1 '_Z14splitSort_nvm5iiPjS_S_'
GPGPU-Sim uArch: Shader 27 bind to kernel 1 '_Z14splitSort_nvm5iiPjS_S_'
GPGPU-Sim uArch: Shader 28 bind to kernel 1 '_Z14splitSort_nvm5iiPjS_S_'
GPGPU-Sim uArch: Shader 29 bind to kernel 1 '_Z14splitSort_nvm5iiPjS_S_'
GPGPU-Sim uArch: Shader 30 bind to kernel 1 '_Z14splitSort_nvm5iiPjS_S_'
GPGPU-Sim uArch: Shader 31 bind to kernel 1 '_Z14splitSort_nvm5iiPjS_S_'
GPGPU-Sim uArch: Shader 32 bind to kernel 1 '_Z14splitSort_nvm5iiPjS_S_'
GPGPU-Sim uArch: Shader 33 bind to kernel 1 '_Z14splitSort_nvm5iiPjS_S_'
GPGPU-Sim uArch: Shader 34 bind to kernel 1 '_Z14splitSort_nvm5iiPjS_S_'
GPGPU-Sim uArch: Shader 35 bind to kernel 1 '_Z14splitSort_nvm5iiPjS_S_'
GPGPU-Sim uArch: Shader 36 bind to kernel 1 '_Z14splitSort_nvm5iiPjS_S_'
GPGPU-Sim uArch: Shader 37 bind to kernel 1 '_Z14splitSort_nvm5iiPjS_S_'
GPGPU-Sim uArch: Shader 38 bind to kernel 1 '_Z14splitSort_nvm5iiPjS_S_'
GPGPU-Sim uArch: Shader 39 bind to kernel 1 '_Z14splitSort_nvm5iiPjS_S_'
GPGPU-Sim uArch: Shader 40 bind to kernel 1 '_Z14splitSort_nvm5iiPjS_S_'
GPGPU-Sim uArch: Shader 41 bind to kernel 1 '_Z14splitSort_nvm5iiPjS_S_'
GPGPU-Sim uArch: Shader 42 bind to kernel 1 '_Z14splitSort_nvm5iiPjS_S_'
GPGPU-Sim uArch: Shader 43 bind to kernel 1 '_Z14splitSort_nvm5iiPjS_S_'
GPGPU-Sim uArch: Shader 44 bind to kernel 1 '_Z14splitSort_nvm5iiPjS_S_'
GPGPU-Sim uArch: Shader 45 bind to kernel 1 '_Z14splitSort_nvm5iiPjS_S_'
GPGPU-Sim uArch: Shader 46 bind to kernel 1 '_Z14splitSort_nvm5iiPjS_S_'
GPGPU-Sim uArch: Shader 47 bind to kernel 1 '_Z14splitSort_nvm5iiPjS_S_'
GPGPU-Sim uArch: Shader 48 bind to kernel 1 '_Z14splitSort_nvm5iiPjS_S_'
GPGPU-Sim uArch: Shader 49 bind to kernel 1 '_Z14splitSort_nvm5iiPjS_S_'
GPGPU-Sim uArch: Shader 50 bind to kernel 1 '_Z14splitSort_nvm5iiPjS_S_'
GPGPU-Sim uArch: Shader 51 bind to kernel 1 '_Z14splitSort_nvm5iiPjS_S_'
GPGPU-Sim uArch: Shader 52 bind to kernel 1 '_Z14splitSort_nvm5iiPjS_S_'
GPGPU-Sim uArch: Shader 53 bind to kernel 1 '_Z14splitSort_nvm5iiPjS_S_'
GPGPU-Sim uArch: Shader 54 bind to kernel 1 '_Z14splitSort_nvm5iiPjS_S_'
GPGPU-Sim uArch: Shader 55 bind to kernel 1 '_Z14splitSort_nvm5iiPjS_S_'
GPGPU-Sim uArch: Shader 56 bind to kernel 1 '_Z14splitSort_nvm5iiPjS_S_'
GPGPU-Sim uArch: Shader 57 bind to kernel 1 '_Z14splitSort_nvm5iiPjS_S_'
GPGPU-Sim uArch: Shader 58 bind to kernel 1 '_Z14splitSort_nvm5iiPjS_S_'
GPGPU-Sim uArch: Shader 59 bind to kernel 1 '_Z14splitSort_nvm5iiPjS_S_'
GPGPU-Sim uArch: Shader 60 bind to kernel 1 '_Z14splitSort_nvm5iiPjS_S_'
GPGPU-Sim uArch: Shader 61 bind to kernel 1 '_Z14splitSort_nvm5iiPjS_S_'
GPGPU-Sim uArch: Shader 62 bind to kernel 1 '_Z14splitSort_nvm5iiPjS_S_'
GPGPU-Sim uArch: Shader 63 bind to kernel 1 '_Z14splitSort_nvm5iiPjS_S_'
GPGPU-Sim uArch: Shader 64 bind to kernel 1 '_Z14splitSort_nvm5iiPjS_S_'
GPGPU-Sim uArch: Shader 65 bind to kernel 1 '_Z14splitSort_nvm5iiPjS_S_'
GPGPU-Sim uArch: Shader 66 bind to kernel 1 '_Z14splitSort_nvm5iiPjS_S_'
GPGPU-Sim uArch: Shader 67 bind to kernel 1 '_Z14splitSort_nvm5iiPjS_S_'
GPGPU-Sim uArch: Shader 68 bind to kernel 1 '_Z14splitSort_nvm5iiPjS_S_'
GPGPU-Sim uArch: Shader 69 bind to kernel 1 '_Z14splitSort_nvm5iiPjS_S_'
GPGPU-Sim uArch: Shader 70 bind to kernel 1 '_Z14splitSort_nvm5iiPjS_S_'
GPGPU-Sim uArch: Shader 71 bind to kernel 1 '_Z14splitSort_nvm5iiPjS_S_'
GPGPU-Sim uArch: Shader 72 bind to kernel 1 '_Z14splitSort_nvm5iiPjS_S_'
GPGPU-Sim uArch: Shader 73 bind to kernel 1 '_Z14splitSort_nvm5iiPjS_S_'
GPGPU-Sim uArch: Shader 74 bind to kernel 1 '_Z14splitSort_nvm5iiPjS_S_'
GPGPU-Sim uArch: Shader 75 bind to kernel 1 '_Z14splitSort_nvm5iiPjS_S_'
GPGPU-Sim uArch: Shader 76 bind to kernel 1 '_Z14splitSort_nvm5iiPjS_S_'
GPGPU-Sim uArch: Shader 77 bind to kernel 1 '_Z14splitSort_nvm5iiPjS_S_'
GPGPU-Sim uArch: Shader 78 bind to kernel 1 '_Z14splitSort_nvm5iiPjS_S_'
GPGPU-Sim uArch: Shader 79 bind to kernel 1 '_Z14splitSort_nvm5iiPjS_S_'
Destroy streams for kernel 1: size 0
kernel_name = _Z14splitSort_nvm5iiPjS_S_ 
kernel_launch_uid = 1 
gpu_sim_cycle = 450767
gpu_sim_insn = 1019827760
gpu_ipc =    2262.4277
gpu_tot_sim_cycle = 450767
gpu_tot_sim_insn = 1019827760
gpu_tot_ipc =    2262.4277
gpu_tot_issued_cta = 2594
gpu_occupancy = 59.3474% 
gpu_tot_occupancy = 59.3474% 
max_total_param_size = 0
gpu_stall_dramfull = 6372
gpu_stall_icnt2sh    = 0
partiton_level_parallism =      22.5388
partiton_level_parallism_total  =      22.5388
partiton_level_parallism_util =      25.7345
partiton_level_parallism_util_total  =      25.7345
L2_BW  =     816.4449 GB/Sec
L2_BW_total  =     816.4449 GB/Sec
gpu_total_sim_rate=218285
############## bottleneck_stats #############
cycles: core 450767, icnt 450767, l2 450767, dram 338473
gpu_ipc	2262.428
gpu_tot_issued_cta = 2594, average cycles = 174
n_dram_writes	 0, n_dram_reads	 0
n_GLOBAL_ACC_R	 1239146 
n_LOCAL_ACC_R	 0 
n_CONST_ACC_R	 0 
n_TEXTURE_ACC_R	 0 
n_GLOBAL_ACC_W	 0 
n_LOCAL_ACC_W	 0 
n_L1_WRBK_ACC	 0 
n_L2_WRBK_ACC	 565971 
n_L1_WR_ALLOC_R	 0 
n_L2_WR_ALLOC_R	 0 

n_sm	 80, n_schedulers	 4
scheduler util	0.240	80
L1D data util	0.819	80	0.839	0
L1D tag util	0.267	80	0.273	73
L2 data util	0.403	64	0.412	49
L2 tag util	0.352	64	0.361	40
n_l2_access	 10160369
icnt s2m util	0.000	0	0.000	40	flits per packet: -nan
icnt m2s util	0.000	0	0.000	40	flits per packet: -nan
sum=0
n_mem	 32
dram util	0.272	32	0.276	2

latency_l1_hit:	51739592, num_l1_reqs:	1732025
L1 hit latency:	29
latency_l2_hit:	403583798, num_l2_reqs:	6179123
L2 hit latency:	760
latency_dram:	-1743420599, num_dram_reqs:	3947070
DRAM latency:	646

n_reg	65536, n_smem	98304, n_thread	2048, n_tb	32
reg file	0.938
smem size	0.228
thread slot	0.625
TB slot    	0.156
L1I tag util	0.535	80	0.545	0

n_mem_pipe	1, n_sp_pipe	4, n_sfu_pipe	4
mem pipe util	0.134	80	0.136	0
sp pipe util	0.000	0	0.000	0
sfu pipe util	0.000	0	0.000	0
ldst mem cycle	0.088	80	0.090	0

smem port	0.521	80

n_reg_bank	16
reg port	0.129	16	0.199	1
L1D tag util	0.267	80	0.273	73
L1D fill util	0.045	80	0.047	0
n_l1d_mshr	4096
L1D mshr util	0.012	80
n_l1d_missq	16
L1D missq util	0.043	80
L1D hit rate	0.180
L1D miss rate	0.723
L1D rsfail rate	0.097
L2 tag util	0.352	64	0.361	40
L2 fill util	0.043	64	0.043	5
n_l2_mshr	192
n_l2_missq	32
L2 mshr util	0.138	64	0.140	27
L2 missq util	0.003	64	0.003	25
L2 hit rate	0.611
L2 miss rate	0.388
L2 rsfail rate	0.000

dram activity	0.564	32	0.576	6

load trans eff	0.250
load trans sz	32.000
load_useful_bytes 26559120, load_transaction_bytes 106236480, icnt_m2s_bytes 0
n_gmem_load_insns 207500, n_gmem_load_accesses 3319890
n_smem_access_insn 3937719, n_smem_accesses 18796160

tmp_counter/12	0.361

run 0.040, fetch 0.001, sync 0.546, control 0.003, data 0.395, struct 0.015
############ end_bottleneck_stats #############

========= Core cache stats =========
L1I_cache:
	L1I_total_cache_accesses = 0
	L1I_total_cache_misses = 0
	L1I_total_cache_pending_hits = 0
	L1I_total_cache_reservation_fails = 0
L1D_cache:
	L1D_cache_core[0]: Access = 110418, Miss = 89235, Miss_rate = 0.808, Pending_hits = 0, Reservation_fails = 10565
	L1D_cache_core[1]: Access = 110418, Miss = 88192, Miss_rate = 0.799, Pending_hits = 0, Reservation_fails = 10465
	L1D_cache_core[2]: Access = 110418, Miss = 87524, Miss_rate = 0.793, Pending_hits = 0, Reservation_fails = 9263
	L1D_cache_core[3]: Access = 110418, Miss = 88073, Miss_rate = 0.798, Pending_hits = 0, Reservation_fails = 10958
	L1D_cache_core[4]: Access = 110418, Miss = 88372, Miss_rate = 0.800, Pending_hits = 0, Reservation_fails = 10876
	L1D_cache_core[5]: Access = 110418, Miss = 88128, Miss_rate = 0.798, Pending_hits = 0, Reservation_fails = 9922
	L1D_cache_core[6]: Access = 110418, Miss = 88103, Miss_rate = 0.798, Pending_hits = 0, Reservation_fails = 10796
	L1D_cache_core[7]: Access = 110418, Miss = 88076, Miss_rate = 0.798, Pending_hits = 0, Reservation_fails = 9529
	L1D_cache_core[8]: Access = 110418, Miss = 88570, Miss_rate = 0.802, Pending_hits = 0, Reservation_fails = 11553
	L1D_cache_core[9]: Access = 110418, Miss = 88084, Miss_rate = 0.798, Pending_hits = 0, Reservation_fails = 10301
	L1D_cache_core[10]: Access = 110418, Miss = 88107, Miss_rate = 0.798, Pending_hits = 0, Reservation_fails = 10286
	L1D_cache_core[11]: Access = 107072, Miss = 85676, Miss_rate = 0.800, Pending_hits = 0, Reservation_fails = 10405
	L1D_cache_core[12]: Access = 110418, Miss = 88451, Miss_rate = 0.801, Pending_hits = 0, Reservation_fails = 11299
	L1D_cache_core[13]: Access = 110418, Miss = 88344, Miss_rate = 0.800, Pending_hits = 0, Reservation_fails = 9960
	L1D_cache_core[14]: Access = 110418, Miss = 87927, Miss_rate = 0.796, Pending_hits = 0, Reservation_fails = 10452
	L1D_cache_core[15]: Access = 110418, Miss = 88852, Miss_rate = 0.805, Pending_hits = 0, Reservation_fails = 10278
	L1D_cache_core[16]: Access = 107072, Miss = 85667, Miss_rate = 0.800, Pending_hits = 0, Reservation_fails = 12298
	L1D_cache_core[17]: Access = 107072, Miss = 85745, Miss_rate = 0.801, Pending_hits = 0, Reservation_fails = 12000
	L1D_cache_core[18]: Access = 110418, Miss = 88364, Miss_rate = 0.800, Pending_hits = 0, Reservation_fails = 10803
	L1D_cache_core[19]: Access = 110418, Miss = 88668, Miss_rate = 0.803, Pending_hits = 0, Reservation_fails = 10637
	L1D_cache_core[20]: Access = 107072, Miss = 86148, Miss_rate = 0.805, Pending_hits = 0, Reservation_fails = 11333
	L1D_cache_core[21]: Access = 110418, Miss = 88185, Miss_rate = 0.799, Pending_hits = 0, Reservation_fails = 11474
	L1D_cache_core[22]: Access = 107072, Miss = 85847, Miss_rate = 0.802, Pending_hits = 0, Reservation_fails = 11319
	L1D_cache_core[23]: Access = 110418, Miss = 88347, Miss_rate = 0.800, Pending_hits = 0, Reservation_fails = 10352
	L1D_cache_core[24]: Access = 107072, Miss = 86065, Miss_rate = 0.804, Pending_hits = 0, Reservation_fails = 12205
	L1D_cache_core[25]: Access = 107072, Miss = 86497, Miss_rate = 0.808, Pending_hits = 0, Reservation_fails = 12483
	L1D_cache_core[26]: Access = 110418, Miss = 88678, Miss_rate = 0.803, Pending_hits = 0, Reservation_fails = 10255
	L1D_cache_core[27]: Access = 110418, Miss = 88219, Miss_rate = 0.799, Pending_hits = 0, Reservation_fails = 10594
	L1D_cache_core[28]: Access = 110418, Miss = 88154, Miss_rate = 0.798, Pending_hits = 0, Reservation_fails = 11379
	L1D_cache_core[29]: Access = 110418, Miss = 88373, Miss_rate = 0.800, Pending_hits = 0, Reservation_fails = 12151
	L1D_cache_core[30]: Access = 110418, Miss = 88830, Miss_rate = 0.804, Pending_hits = 0, Reservation_fails = 10419
	L1D_cache_core[31]: Access = 110418, Miss = 88563, Miss_rate = 0.802, Pending_hits = 0, Reservation_fails = 10579
	L1D_cache_core[32]: Access = 107072, Miss = 85787, Miss_rate = 0.801, Pending_hits = 0, Reservation_fails = 13744
	L1D_cache_core[33]: Access = 107072, Miss = 85374, Miss_rate = 0.797, Pending_hits = 0, Reservation_fails = 13127
	L1D_cache_core[34]: Access = 110418, Miss = 88904, Miss_rate = 0.805, Pending_hits = 0, Reservation_fails = 11197
	L1D_cache_core[35]: Access = 107072, Miss = 85351, Miss_rate = 0.797, Pending_hits = 0, Reservation_fails = 11534
	L1D_cache_core[36]: Access = 107072, Miss = 86000, Miss_rate = 0.803, Pending_hits = 0, Reservation_fails = 12029
	L1D_cache_core[37]: Access = 107072, Miss = 85370, Miss_rate = 0.797, Pending_hits = 0, Reservation_fails = 11765
	L1D_cache_core[38]: Access = 107072, Miss = 85064, Miss_rate = 0.794, Pending_hits = 0, Reservation_fails = 11140
	L1D_cache_core[39]: Access = 107072, Miss = 86029, Miss_rate = 0.803, Pending_hits = 0, Reservation_fails = 12013
	L1D_cache_core[40]: Access = 107072, Miss = 85563, Miss_rate = 0.799, Pending_hits = 0, Reservation_fails = 13083
	L1D_cache_core[41]: Access = 107072, Miss = 85411, Miss_rate = 0.798, Pending_hits = 0, Reservation_fails = 12598
	L1D_cache_core[42]: Access = 110418, Miss = 88183, Miss_rate = 0.799, Pending_hits = 0, Reservation_fails = 11999
	L1D_cache_core[43]: Access = 107072, Miss = 85937, Miss_rate = 0.803, Pending_hits = 0, Reservation_fails = 11706
	L1D_cache_core[44]: Access = 107072, Miss = 86232, Miss_rate = 0.805, Pending_hits = 0, Reservation_fails = 12998
	L1D_cache_core[45]: Access = 107072, Miss = 85768, Miss_rate = 0.801, Pending_hits = 0, Reservation_fails = 12470
	L1D_cache_core[46]: Access = 110418, Miss = 88349, Miss_rate = 0.800, Pending_hits = 0, Reservation_fails = 10730
	L1D_cache_core[47]: Access = 107072, Miss = 85477, Miss_rate = 0.798, Pending_hits = 0, Reservation_fails = 12937
	L1D_cache_core[48]: Access = 107072, Miss = 85656, Miss_rate = 0.800, Pending_hits = 0, Reservation_fails = 12938
	L1D_cache_core[49]: Access = 107072, Miss = 85336, Miss_rate = 0.797, Pending_hits = 0, Reservation_fails = 13273
	L1D_cache_core[50]: Access = 107072, Miss = 85728, Miss_rate = 0.801, Pending_hits = 0, Reservation_fails = 11101
	L1D_cache_core[51]: Access = 109300, Miss = 86978, Miss_rate = 0.796, Pending_hits = 0, Reservation_fails = 11537
	L1D_cache_core[52]: Access = 107072, Miss = 85124, Miss_rate = 0.795, Pending_hits = 0, Reservation_fails = 12606
	L1D_cache_core[53]: Access = 107072, Miss = 85644, Miss_rate = 0.800, Pending_hits = 0, Reservation_fails = 12695
	L1D_cache_core[54]: Access = 107072, Miss = 85727, Miss_rate = 0.801, Pending_hits = 0, Reservation_fails = 11366
	L1D_cache_core[55]: Access = 107072, Miss = 85388, Miss_rate = 0.797, Pending_hits = 0, Reservation_fails = 11457
	L1D_cache_core[56]: Access = 110418, Miss = 88226, Miss_rate = 0.799, Pending_hits = 0, Reservation_fails = 11758
	L1D_cache_core[57]: Access = 107072, Miss = 85321, Miss_rate = 0.797, Pending_hits = 0, Reservation_fails = 12666
	L1D_cache_core[58]: Access = 107072, Miss = 86209, Miss_rate = 0.805, Pending_hits = 0, Reservation_fails = 11587
	L1D_cache_core[59]: Access = 107072, Miss = 86377, Miss_rate = 0.807, Pending_hits = 0, Reservation_fails = 12374
	L1D_cache_core[60]: Access = 107072, Miss = 85822, Miss_rate = 0.802, Pending_hits = 0, Reservation_fails = 12357
	L1D_cache_core[61]: Access = 107072, Miss = 85973, Miss_rate = 0.803, Pending_hits = 0, Reservation_fails = 12789
	L1D_cache_core[62]: Access = 107072, Miss = 85447, Miss_rate = 0.798, Pending_hits = 0, Reservation_fails = 11079
	L1D_cache_core[63]: Access = 110418, Miss = 88487, Miss_rate = 0.801, Pending_hits = 0, Reservation_fails = 12030
	L1D_cache_core[64]: Access = 107072, Miss = 85492, Miss_rate = 0.798, Pending_hits = 0, Reservation_fails = 12613
	L1D_cache_core[65]: Access = 107072, Miss = 86338, Miss_rate = 0.806, Pending_hits = 0, Reservation_fails = 13778
	L1D_cache_core[66]: Access = 107072, Miss = 85767, Miss_rate = 0.801, Pending_hits = 0, Reservation_fails = 11859
	L1D_cache_core[67]: Access = 107072, Miss = 85522, Miss_rate = 0.799, Pending_hits = 0, Reservation_fails = 13387
	L1D_cache_core[68]: Access = 110418, Miss = 88545, Miss_rate = 0.802, Pending_hits = 0, Reservation_fails = 11288
	L1D_cache_core[69]: Access = 107072, Miss = 85852, Miss_rate = 0.802, Pending_hits = 0, Reservation_fails = 12138
	L1D_cache_core[70]: Access = 107072, Miss = 85460, Miss_rate = 0.798, Pending_hits = 0, Reservation_fails = 11873
	L1D_cache_core[71]: Access = 107072, Miss = 85787, Miss_rate = 0.801, Pending_hits = 0, Reservation_fails = 12055
	L1D_cache_core[72]: Access = 107072, Miss = 85556, Miss_rate = 0.799, Pending_hits = 0, Reservation_fails = 12965
	L1D_cache_core[73]: Access = 110418, Miss = 88872, Miss_rate = 0.805, Pending_hits = 0, Reservation_fails = 12692
	L1D_cache_core[74]: Access = 107072, Miss = 85071, Miss_rate = 0.795, Pending_hits = 0, Reservation_fails = 12330
	L1D_cache_core[75]: Access = 107072, Miss = 85601, Miss_rate = 0.799, Pending_hits = 0, Reservation_fails = 11818
	L1D_cache_core[76]: Access = 107072, Miss = 85752, Miss_rate = 0.801, Pending_hits = 0, Reservation_fails = 12662
	L1D_cache_core[77]: Access = 107072, Miss = 86223, Miss_rate = 0.805, Pending_hits = 0, Reservation_fails = 12716
	L1D_cache_core[78]: Access = 110418, Miss = 88063, Miss_rate = 0.798, Pending_hits = 0, Reservation_fails = 11374
[...]
bk0: 3712a 855146i bk1: 3712a 858509i bk2: 3672a 692040i bk3: 3696a 858798i bk4: 3712a 860487i bk5: 3712a 857579i bk6: 3656a 854916i bk7: 3640a 855166i bk8: 3728a 853850i bk9: 3744a 855553i bk10: 3776a 860351i bk11: 3752a 858186i bk12: 3800a 849872i bk13: 3784a 852399i bk14: 3776a 846086i bk15: 3776a 844515i 

------------------------------------------------------------------------

Row_Buffer_Locality = 0.938972
Row_Buffer_Locality_read = 0.939629
Row_Buffer_Locality_write = 0.938298
Bank_Level_Parallism = 2.257192
Bank_Level_Parallism_Col = 2.092369
Bank_Level_Parallism_Ready = 1.175540
write_to_read_ratio_blp_rw_average = 0.583482
GrpLevelPara = 1.783743 

BW Util details:
bwutil = 0.236845 
total_CMD = 899081 
util_bw = 212943 
Wasted_Col = 205963 
Wasted_Row = 19533 
Idle = 460642 

BW Util Bottlenecks: 
RCDc_limit = 24211 
RCDWRc_limit = 20135 
WTRc_limit = 141606 
RTWc_limit = 60563 
CCDLc_limit = 185446 
rwq = 0 
CCDLc_limit_alone = 155329 
WTRc_limit_alone = 116479 
RTWc_limit_alone = 55573 

Commands details: 
total_CMD = 899081 
n_nop = 677432 
Read = 59648 
Write = 0 
L2_Alloc = 0 
L2_WB = 153295 
n_act = 7189 
n_pre = 7173 
n_ref = 0 
n_req = 117798 
total_req = 212943 

Dual Bus Interface Util: 
issued_total_row = 14362 
issued_total_col = 212943 
Row_Bus_Util =  0.015974 
CoL_Bus_Util = 0.236845 
Either_Row_CoL_Bus_Util = 0.246528 
Issued_on_Two_Bus_Simul_Util = 0.006291 
issued_two_Eff = 0.025518 
queue_avg = 7.056598 


dram_util_bins: 0 0 0 0 0 0 0 0 0 0
dram_eff_bins: 0 0 0 0 0 0 0 0 0 0
mrqq: max=64 avg=7.0566
Memory Partition 29: 
Cache L2_bank_058:

Cache L2_bank_059:

In Dram Latency Queue (total = 0): 
DRAM[29]: 16 bks, busW=16 BL=2 CL=12, tRRD=3 tCCD=1, tRCD=12 tRAS=28 tRP=12 tRC=40
n_cmd=899081 n_nop=656929 n_act=6639 n_pre=6623 n_ref_event=0 n_req=130190 n_rd=59624 n_rd_L2_A=0 n_write=0 n_wr_bk=174810 bw_util=0.2607
n_activity=513947 dram_eff=0.4561
bk0: 3712a 856754i bk1: 3712a 857170i bk2: 3672a 682203i bk3: 3688a 858653i bk4: 3712a 854206i bk5: 3712a 858135i bk6: 3656a 859269i bk7: 3640a 859782i bk8: 3736a 855863i bk9: 3752a 853422i bk10: 3760a 855559i bk11: 3760a 853167i bk12: 3784a 855727i bk13: 3776a 855241i bk14: 3776a 845779i bk15: 3776a 843424i 

------------------------------------------------------------------------

Row_Buffer_Locality = 0.949005
Row_Buffer_Locality_read = 0.943261
Row_Buffer_Locality_write = 0.953859
Bank_Level_Parallism = 2.159205
Bank_Level_Parallism_Col = 2.013028
Bank_Level_Parallism_Ready = 1.166584
write_to_read_ratio_blp_rw_average = 0.622326
GrpLevelPara = 1.714623 

BW Util details:
bwutil = 0.260748 
total_CMD = 899081 
util_bw = 234434 
Wasted_Col = 215537 
Wasted_Row = 18318 
Idle = 430792 

BW Util Bottlenecks: 
RCDc_limit = 21877 
RCDWRc_limit = 17991 
WTRc_limit = 137350 
RTWc_limit = 55906 
CCDLc_limit = 197853 
rwq = 0 
CCDLc_limit_alone = 167511 
WTRc_limit_alone = 111373 
RTWc_limit_alone = 51541 

Commands details: 
total_CMD = 899081 
n_nop = 656929 
Read = 59624 
Write = 0 
L2_Alloc = 0 
L2_WB = 174810 
n_act = 6639 
n_pre = 6623 
n_ref = 0 
n_req = 130190 
total_req = 234434 

Dual Bus Interface Util: 
issued_total_row = 13262 
issued_total_col = 234434 
Row_Bus_Util =  0.014751 
CoL_Bus_Util = 0.260748 
Either_Row_CoL_Bus_Util = 0.269333 
Issued_on_Two_Bus_Simul_Util = 0.006166 
issued_two_Eff = 0.022895 
queue_avg = 7.040721 


dram_util_bins: 0 0 0 0 0 0 0 0 0 0
dram_eff_bins: 0 0 0 0 0 0 0 0 0 0
mrqq: max=64 avg=7.04072
Memory Partition 30: 
Cache L2_bank_060:

Cache L2_bank_061:

In Dram Latency Queue (total = 0): 
DRAM[30]: 16 bks, busW=16 BL=2 CL=12, tRRD=3 tCCD=1, tRCD=12 tRAS=28 tRP=12 tRC=40
n_cmd=899081 n_nop=660229 n_act=6534 n_pre=6518 n_ref_event=0 n_req=126441 n_rd=59596 n_rd_L2_A=0 n_write=0 n_wr_bk=171657 bw_util=0.2572
n_activity=495583 dram_eff=0.4666
bk0: 3712a 853315i bk1: 3712a 855059i bk2: 3672a 685870i bk3: 3688a 853639i bk4: 3712a 853546i bk5: 3712a 852684i bk6: 3656a 852885i bk7: 3632a 855819i bk8: 3748a 853422i bk9: 3736a 849340i bk10: 3760a 854691i bk11: 3760a 852883i bk12: 3800a 851584i bk13: 3776a 849368i bk14: 3760a 847765i bk15: 3760a 838848i 

------------------------------------------------------------------------

Row_Buffer_Locality = 0.948324
Row_Buffer_Locality_read = 0.945668
Row_Buffer_Locality_write = 0.950692
Bank_Level_Parallism = 2.278746
Bank_Level_Parallism_Col = 2.138024
Bank_Level_Parallism_Ready = 1.173187
write_to_read_ratio_blp_rw_average = 0.600472
GrpLevelPara = 1.815413 

BW Util details:
bwutil = 0.257210 
total_CMD = 899081 
util_bw = 231253 
Wasted_Col = 212086 
Wasted_Row = 17888 
Idle = 437854 

BW Util Bottlenecks: 
RCDc_limit = 20568 
RCDWRc_limit = 18658 
WTRc_limit = 163954 
RTWc_limit = 54248 
CCDLc_limit = 201026 
rwq = 0 
CCDLc_limit_alone = 167803 
WTRc_limit_alone = 134891 
RTWc_limit_alone = 50088 

Commands details: 
total_CMD = 899081 
n_nop = 660229 
Read = 59596 
Write = 0 
L2_Alloc = 0 
L2_WB = 171657 
n_act = 6534 
n_pre = 6518 
n_ref = 0 
n_req = 126441 
total_req = 231253 

Dual Bus Interface Util: 
issued_total_row = 13052 
issued_total_col = 231253 
Row_Bus_Util =  0.014517 
CoL_Bus_Util = 0.257210 
Either_Row_CoL_Bus_Util = 0.265662 
Issued_on_Two_Bus_Simul_Util = 0.006065 
issued_two_Eff = 0.022830 
queue_avg = 7.710404 


dram_util_bins: 0 0 0 0 0 0 0 0 0 0
dram_eff_bins: 0 0 0 0 0 0 0 0 0 0
mrqq: max=64 avg=7.7104
Memory Partition 31: 
Cache L2_bank_062:

Cache L2_bank_063:

In Dram Latency Queue (total = 0): 
DRAM[31]: 16 bks, busW=16 BL=2 CL=12, tRRD=3 tCCD=1, tRCD=12 tRAS=28 tRP=12 tRC=40
n_cmd=899081 n_nop=657283 n_act=6547 n_pre=6531 n_ref_event=0 n_req=130222 n_rd=59588 n_rd_L2_A=0 n_write=0 n_wr_bk=174543 bw_util=0.2604
n_activity=516607 dram_eff=0.4532
bk0: 3712a 857899i bk1: 3712a 855678i bk2: 3672a 681107i bk3: 3688a 858551i bk4: 3712a 858003i bk5: 3712a 855590i bk6: 3648a 858549i bk7: 3632a 858306i bk8: 3736a 854112i bk9: 3728a 857628i bk10: 3768a 855634i bk11: 3760a 854013i bk12: 3808a 857866i bk13: 3784a 857309i bk14: 3760a 848424i bk15: 3756a 848226i 

------------------------------------------------------------------------

Row_Buffer_Locality = 0.949724
Row_Buffer_Locality_read = 0.945408
Row_Buffer_Locality_write = 0.953365
Bank_Level_Parallism = 2.120219
Bank_Level_Parallism_Col = 1.973710
Bank_Level_Parallism_Ready = 1.147691
write_to_read_ratio_blp_rw_average = 0.627464
GrpLevelPara = 1.679545 

BW Util details:
bwutil = 0.260411 
total_CMD = 899081 
util_bw = 234131 
Wasted_Col = 218819 
Wasted_Row = 18050 
Idle = 428081 

BW Util Bottlenecks: 
RCDc_limit = 21322 
RCDWRc_limit = 18461 
WTRc_limit = 134674 
RTWc_limit = 57977 
CCDLc_limit = 200234 
rwq = 0 
CCDLc_limit_alone = 170633 
WTRc_limit_alone = 109884 
RTWc_limit_alone = 53166 

Commands details: 
total_CMD = 899081 
n_nop = 657283 
Read = 59588 
Write = 0 
L2_Alloc = 0 
L2_WB = 174543 
n_act = 6547 
n_pre = 6531 
n_ref = 0 
n_req = 130222 
total_req = 234131 

Dual Bus Interface Util: 
issued_total_row = 13078 
issued_total_col = 234131 
Row_Bus_Util =  0.014546 
CoL_Bus_Util = 0.260411 
Either_Row_CoL_Bus_Util = 0.268939 
Issued_on_Two_Bus_Simul_Util = 0.006018 
issued_two_Eff = 0.022378 
queue_avg = 6.577672 


dram_util_bins: 0 0 0 0 0 0 0 0 0 0
dram_eff_bins: 0 0 0 0 0 0 0 0 0 0
mrqq: max=64 avg=6.57767

========= L2 cache stats =========
L2_cache_bank[0]: Access = 245201, Miss = 145133, Miss_rate = 0.592, Pending_hits = 135, Reservation_fails = 8405
L2_cache_bank[1]: Access = 421712, Miss = 155272, Miss_rate = 0.368, Pending_hits = 147, Reservation_fails = 10074
L2_cache_bank[2]: Access = 255190, Miss = 155029, Miss_rate = 0.608, Pending_hits = 150, Reservation_fails = 4083
L2_cache_bank[3]: Access = 438853, Miss = 159986, Miss_rate = 0.365, Pending_hits = 163, Reservation_fails = 9225
L2_cache_bank[4]: Access = 260184, Miss = 159991, Miss_rate = 0.615, Pending_hits = 153, Reservation_fails = 6721
L2_cache_bank[5]: Access = 421141, Miss = 155354, Miss_rate = 0.369, Pending_hits = 131, Reservation_fails = 3749
L2_cache_bank[6]: Access = 255377, Miss = 155300, Miss_rate = 0.608, Pending_hits = 162, Reservation_fails = 13287
L2_cache_bank[7]: Access = 438654, Miss = 160017, Miss_rate = 0.365, Pending_hits = 176, Reservation_fails = 12767
L2_cache_bank[8]: Access = 261349, Miss = 159978, Miss_rate = 0.612, Pending_hits = 136, Reservation_fails = 10267
L2_cache_bank[9]: Access = 422640, Miss = 155322, Miss_rate = 0.368, Pending_hits = 167, Reservation_fails = 15259
L2_cache_bank[10]: Access = 256615, Miss = 155316, Miss_rate = 0.605, Pending_hits = 170, Reservation_fails = 17773
L2_cache_bank[11]: Access = 440040, Miss = 159985, Miss_rate = 0.364, Pending_hits = 177, Reservation_fails = 13722
L2_cache_bank[12]: Access = 260803, Miss = 160004, Miss_rate = 0.614, Pending_hits = 144, Reservation_fails = 16324
L2_cache_bank[13]: Access = 422308, Miss = 155265, Miss_rate = 0.368, Pending_hits = 146, Reservation_fails = 8599
L2_cache_bank[14]: Access = 256073, Miss = 155319, Miss_rate = 0.607, Pending_hits = 166, Reservation_fails = 13241
L2_cache_bank[15]: Access = 439591, Miss = 159944, Miss_rate = 0.364, Pending_hits = 160, Reservation_fails = 9643
L2_cache_bank[16]: Access = 261433, Miss = 159984, Miss_rate = 0.612, Pending_hits = 154, Reservation_fails = 15702
L2_cache_bank[17]: Access = 422406, Miss = 155247, Miss_rate = 0.368, Pending_hits = 161, Reservation_fails = 14500
L2_cache_bank[18]: Access = 256779, Miss = 155280, Miss_rate = 0.605, Pending_hits = 168, Reservation_fails = 18641
L2_cache_bank[19]: Access = 439892, Miss = 159922, Miss_rate = 0.364, Pending_hits = 162, Reservation_fails = 12317
L2_cache_bank[20]: Access = 261289, Miss = 159980, Miss_rate = 0.612, Pending_hits = 143, Reservation_fails = 13123
L2_cache_bank[21]: Access = 422092, Miss = 155120, Miss_rate = 0.368, Pending_hits = 155, Reservation_fails = 15504
L2_cache_bank[22]: Access = 256418, Miss = 155276, Miss_rate = 0.606, Pending_hits = 113, Reservation_fails = 7810
L2_cache_bank[23]: Access = 221980, Miss = 86550, Miss_rate = 0.390, Pending_hits = 148, Reservation_fails = 7753
L2_cache_bank[24]: Access = 213707, Miss = 159978, Miss_rate = 0.749, Pending_hits = 94, Reservation_fails = 2536
L2_cache_bank[25]: Access = 125557, Miss = 72008, Miss_rate = 0.574, Pending_hits = 89, Reservation_fails = 1468
L2_cache_bank[26]: Access = 255571, Miss = 155309, Miss_rate = 0.608, Pending_hits = 103, Reservation_fails = 2134
L2_cache_bank[27]: Access = 172084, Miss = 72017, Miss_rate = 0.418, Pending_hits = 94, Reservation_fails = 1114
L2_cache_bank[28]: Access = 260206, Miss = 159999, Miss_rate = 0.615, Pending_hits = 102, Reservation_fails = 5150
L2_cache_bank[29]: Access = 171916, Miss = 72009, Miss_rate = 0.419, Pending_hits = 80, Reservation_fails = 4760
L2_cache_bank[30]: Access = 255406, Miss = 155322, Miss_rate = 0.608, Pending_hits = 110, Reservation_fails = 1975
L2_cache_bank[31]: Access = 172009, Miss = 72004, Miss_rate = 0.419, Pending_hits = 116, Reservation_fails = 4210
L2_cache_bank[32]: Access = 187199, Miss = 86851, Miss_rate = 0.464, Pending_hits = 79, Reservation_fails = 3057
L2_cache_bank[33]: Access = 171984, Miss = 72005, Miss_rate = 0.419, Pending_hits = 102, Reservation_fails = 2142
L2_cache_bank[34]: Access = 172493, Miss = 72322, Miss_rate = 0.419, Pending_hits = 77, Reservation_fails = 1346
L2_cache_bank[35]: Access = 171751, Miss = 72036, Miss_rate = 0.419, Pending_hits = 105, Reservation_fails = 3238
L2_cache_bank[36]: Access = 172187, Miss = 72377, Miss_rate = 0.420, Pending_hits = 78, Reservation_fails = 1087
L2_cache_bank[37]: Access = 171590, Miss = 72016, Miss_rate = 0.420, Pending_hits = 94, Reservation_fails = 2739
L2_cache_bank[38]: Access = 172165, Miss = 72379, Miss_rate = 0.420, Pending_hits = 95, Reservation_fails = 3277
L2_cache_bank[39]: Access = 171612, Miss = 72048, Miss_rate = 0.420, Pending_hits = 95, Reservation_fails = 3121
L2_cache_bank[40]: Access = 173783, Miss = 72327, Miss_rate = 0.416, Pending_hits = 95, Reservation_fails = 1376
L2_cache_bank[41]: Access = 173315, Miss = 72050, Miss_rate = 0.416, Pending_hits = 75, Reservation_fails = 2517
L2_cache_bank[42]: Access = 173624, Miss = 72325, Miss_rate = 0.417, Pending_hits = 89, Reservation_fails = 5120
L2_cache_bank[43]: Access = 173311, Miss = 72040, Miss_rate = 0.416, Pending_hits = 85, Reservation_fails = 6838
L2_cache_bank[44]: Access = 173198, Miss = 72325, Miss_rate = 0.418, Pending_hits = 82, Reservation_fails = 6181
L2_cache_bank[45]: Access = 172820, Miss = 72034, Miss_rate = 0.417, Pending_hits = 95, Reservation_fails = 6421
L2_cache_bank[46]: Access = 173215, Miss = 72329, Miss_rate = 0.418, Pending_hits = 88, Reservation_fails = 7190
L2_cache_bank[47]: Access = 173311, Miss = 72116, Miss_rate = 0.416, Pending_hits = 111, Reservation_fails = 7217
L2_cache_bank[48]: Access = 173604, Miss = 72368, Miss_rate = 0.417, Pending_hits = 85, Reservation_fails = 4755
L2_cache_bank[49]: Access = 173570, Miss = 72130, Miss_rate = 0.416, Pending_hits = 114, Reservation_fails = 3077
L2_cache_bank[50]: Access = 173561, Miss = 72359, Miss_rate = 0.417, Pending_hits = 102, Reservation_fails = 1682
L2_cache_bank[51]: Access = 173509, Miss = 72096, Miss_rate = 0.416, Pending_hits = 97, Reservation_fails = 3928
L2_cache_bank[52]: Access = 173287, Miss = 72356, Miss_rate = 0.418, Pending_hits = 102, Reservation_fails = 5227
L2_cache_bank[53]: Access = 173579, Miss = 72126, Miss_rate = 0.416, Pending_hits = 91, Reservation_fails = 1792
L2_cache_bank[54]: Access = 390375, Miss = 145503, Miss_rate = 0.373, Pending_hits = 154, Reservation_fails = 12981
L2_cache_bank[55]: Access = 173534, Miss = 72144, Miss_rate = 0.416, Pending_hits = 174, Reservation_fails = 16563
L2_cache_bank[56]: Access = 374905, Miss = 155351, Miss_rate = 0.414, Pending_hits = 147, Reservation_fails = 11663
L2_cache_bank[57]: Access = 126034, Miss = 72080, Miss_rate = 0.572, Pending_hits = 182, Reservation_fails = 15936
L2_cache_bank[58]: Access = 438784, Miss = 159960, Miss_rate = 0.365, Pending_hits = 160, Reservation_fails = 7138
L2_cache_bank[59]: Access = 172647, Miss = 72080, Miss_rate = 0.417, Pending_hits = 162, Reservation_fails = 8511
L2_cache_bank[60]: Access = 421463, Miss = 155298, Miss_rate = 0.368, Pending_hits = 143, Reservation_fails = 6812
L2_cache_bank[61]: Access = 172301, Miss = 72043, Miss_rate = 0.418, Pending_hits = 191, Reservation_fails = 16699
L2_cache_bank[62]: Access = 438812, Miss = 159968, Miss_rate = 0.365, Pending_hits = 153, Reservation_fails = 11742
L2_cache_bank[63]: Access = 171902, Miss = 72001, Miss_rate = 0.419, Pending_hits = 163, Reservation_fails = 11430
L2_total_cache_accesses = 16363901
L2_total_cache_misses = 7352663
L2_total_cache_miss_rate = 0.4493
L2_total_cache_pending_hits = 8140
L2_total_cache_reservation_fails = 504639
L2_total_cache_breakdown:
	L2_cache_stats_breakdown[GLOBAL_ACC_R][HIT] = 410397
	L2_cache_stats_breakdown[GLOBAL_ACC_R][HIT_RESERVED] = 8140
	L2_cache_stats_breakdown[GLOBAL_ACC_R][MISS] = 477081
	L2_cache_stats_breakdown[GLOBAL_ACC_R][RESERVATION_FAIL] = 504639
	L2_cache_stats_breakdown[GLOBAL_ACC_R][SECTOR_MISS] = 1431231
	L2_cache_stats_breakdown[LOCAL_ACC_R][HIT] = 0
	L2_cache_stats_breakdown[LOCAL_ACC_R][HIT_RESERVED] = 0
	L2_cache_stats_breakdown[LOCAL_ACC_R][MISS] = 0
	L2_cache_stats_breakdown[LOCAL_ACC_R][RESERVATION_FAIL] = 0
	L2_cache_stats_breakdown[LOCAL_ACC_R][SECTOR_MISS] = 0
	L2_cache_stats_breakdown[CONST_ACC_R][HIT] = 0
	L2_cache_stats_breakdown[CONST_ACC_R][HIT_RESERVED] = 0
	L2_cache_stats_breakdown[CONST_ACC_R][MISS] = 0
	L2_cache_stats_breakdown[CONST_ACC_R][RESERVATION_FAIL] = 0
	L2_cache_stats_breakdown[CONST_ACC_R][SECTOR_MISS] = 0
	L2_cache_stats_breakdown[TEXTURE_ACC_R][HIT] = 0
	L2_cache_stats_breakdown[TEXTURE_ACC_R][HIT_RESERVED] = 0
	L2_cache_stats_breakdown[TEXTURE_ACC_R][MISS] = 0
	L2_cache_stats_breakdown[TEXTURE_ACC_R][RESERVATION_FAIL] = 0
	L2_cache_stats_breakdown[TEXTURE_ACC_R][SECTOR_MISS] = 0
	L2_cache_stats_breakdown[GLOBAL_ACC_W][HIT] = 8592701
	L2_cache_stats_breakdown[GLOBAL_ACC_W][HIT_RESERVED] = 0
	L2_cache_stats_breakdown[GLOBAL_ACC_W][MISS] = 167641
	L2_cache_stats_breakdown[GLOBAL_ACC_W][RESERVATION_FAIL] = 0
	L2_cache_stats_breakdown[GLOBAL_ACC_W][SECTOR_MISS] = 5276710
	L2_cache_stats_breakdown[LOCAL_ACC_W][HIT] = 0
	L2_cache_stats_breakdown[LOCAL_ACC_W][HIT_RESERVED] = 0
	L2_cache_stats_breakdown[LOCAL_ACC_W][MISS] = 0
	L2_cache_stats_breakdown[LOCAL_ACC_W][RESERVATION_FAIL] = 0
	L2_cache_stats_breakdown[LOCAL_ACC_W][SECTOR_MISS] = 0
	L2_cache_stats_breakdown[L1_WRBK_ACC][HIT] = 0
	L2_cache_stats_breakdown[L1_WRBK_ACC][HIT_RESERVED] = 0
	L2_cache_stats_breakdown[L1_WRBK_ACC][MISS] = 0
	L2_cache_stats_breakdown[L1_WRBK_ACC][RESERVATION_FAIL] = 0
	L2_cache_stats_breakdown[L1_WRBK_ACC][SECTOR_MISS] = 0
	L2_cache_stats_breakdown[L2_WRBK_ACC][HIT] = 0
	L2_cache_stats_breakdown[L2_WRBK_ACC][HIT_RESERVED] = 0
	L2_cache_stats_breakdown[L2_WRBK_ACC][MISS] = 0
	L2_cache_stats_breakdown[L2_WRBK_ACC][RESERVATION_FAIL] = 0
	L2_cache_stats_breakdown[L2_WRBK_ACC][SECTOR_MISS] = 0
	L2_cache_stats_breakdown[INST_ACC_R][HIT] = 0
	L2_cache_stats_breakdown[INST_ACC_R][HIT_RESERVED] = 0
	L2_cache_stats_breakdown[INST_ACC_R][MISS] = 0
	L2_cache_stats_breakdown[INST_ACC_R][RESERVATION_FAIL] = 0
	L2_cache_stats_breakdown[INST_ACC_R][SECTOR_MISS] = 0
	L2_cache_stats_breakdown[L1_WR_ALLOC_R][HIT] = 0
	L2_cache_stats_breakdown[L1_WR_ALLOC_R][HIT_RESERVED] = 0
	L2_cache_stats_breakdown[L1_WR_ALLOC_R][MISS] = 0
	L2_cache_stats_breakdown[L1_WR_ALLOC_R][RESERVATION_FAIL] = 0
	L2_cache_stats_breakdown[L1_WR_ALLOC_R][SECTOR_MISS] = 0
	L2_cache_stats_breakdown[L2_WR_ALLOC_R][HIT] = 0
	L2_cache_stats_breakdown[L2_WR_ALLOC_R][HIT_RESERVED] = 0
	L2_cache_stats_breakdown[L2_WR_ALLOC_R][MISS] = 0
	L2_cache_stats_breakdown[L2_WR_ALLOC_R][RESERVATION_FAIL] = 0
	L2_cache_stats_breakdown[L2_WR_ALLOC_R][SECTOR_MISS] = 0
	L2_cache_stats_breakdown[GLOBAL_ACC_R][TOTAL_ACCESS] = 2326849
	L2_cache_stats_breakdown[GLOBAL_ACC_W][TOTAL_ACCESS] = 14037052
L2_total_cache_reservation_fail_breakdown:
	L2_cache_stats_fail_breakdown[GLOBAL_ACC_R][MSHR_ENRTY_FAIL] = 146846
	L2_cache_stats_fail_breakdown[GLOBAL_ACC_R][MSHR_MERGE_ENRTY_FAIL] = 357793
L2_cache_data_port_util = 0.147
L2_cache_fill_port_util = 0.025

icnt_total_pkts_mem_to_simt=16363901
icnt_total_pkts_simt_to_mem=16363901
LD_mem_lat_dist  0 0 0 0 0 0 0 0 0 0 0 0 0 0 0 0 0 0 0 0 0 0 0 0 0 0 0
ST_mem_lat_dist  0 0 0 0 0 0 0 0 0 0 0 0 0 0 0 0 0 0 0 0 0 0 0 0 0 0 0
----------------------------Interconnect-DETAILS--------------------------------
Req_Network_injected_packets_num = 16363901
Req_Network_cycles = 1197365
Req_Network_injected_packets_per_cycle =      13.6666 
Req_Network_conflicts_per_cycle =      20.2516
Req_Network_conflicts_per_cycle_util =      21.5122
Req_Bank_Level_Parallism =      14.5173
Req_Network_in_buffer_full_per_cycle =       6.6299
Req_Network_in_buffer_avg_util =      99.9132
Req_Network_out_buffer_full_per_cycle =       0.1398
Req_Network_out_buffer_avg_util =       8.4570

Reply_Network_injected_packets_num = 16363901
Reply_Network_cycles = 1197365
Reply_Network_injected_packets_per_cycle =       13.6666
Reply_Network_conflicts_per_cycle =        7.9791
Reply_Network_conflicts_per_cycle_util =       8.4898
Reply_Bank_Level_Parallism =      14.5413
Reply_Network_in_buffer_full_per_cycle =       0.0000
Reply_Network_in_buffer_avg_util =       3.5590
Reply_Network_out_buffer_full_per_cycle =       0.0000
Reply_Network_out_buffer_avg_util =       0.1708
----------------------------END-of-Interconnect-DETAILS-------------------------


gpgpu_simulation_time = 0 days, 3 hrs, 57 min, 22 sec (14242 sec)
gpgpu_simulation_rate = 267530 (inst/sec)
gpgpu_simulation_rate = 84 (cycle/sec)
gpgpu_silicon_slowdown = 13476190x
GPGPU-Sim: synchronize waiting for inactive GPU simulation
GPGPU-Sim API: Stream Manager State
GPGPU-Sim: detected inactive GPU simulation thread
GPGPU-Sim: *** exit detected ***
