

        *** GPGPU-Sim Simulator Version 4.0.0  [build gpgpu-sim_git-commit-ffe0a1a00e984ecce9bf36e17ab94c4de0de8108_modified_0.0] ***


GPGPU-Sim PTX: simulation mode 0 (can change with PTX_SIM_MODE_FUNC environment variable:
               1=functional simulation only, 0=detailed performance simulator)
GPGPU-Sim PTX: overriding embedded ptx with ptx file (PTX_SIM_USE_PTX_FILE is set)
GPGPU-Sim: Configuration options:

-save_embedded_ptx                      0 # saves ptx files embedded in binary as <n>.ptx
-keep                                   0 # keep intermediate files created by GPGPU-Sim when interfacing with external programs
-gpgpu_ptx_save_converted_ptxplus                    0 # Saved converted ptxplus to a file
-gpgpu_occupancy_sm_number                   70 # The SM number to pass to ptxas when getting register usage for computing GPU occupancy. This parameter is required in the config.
-ptx_opcode_latency_int      4,13,4,5,145,21 # Opcode latencies for integers <ADD,MAX,MUL,MAD,DIV,SHFL>Default 1,1,19,25,145,32
-ptx_opcode_latency_fp          4,13,4,5,39 # Opcode latencies for single precision floating points <ADD,MAX,MUL,MAD,DIV>Default 1,1,1,1,30
-ptx_opcode_latency_dp         8,19,8,8,330 # Opcode latencies for double precision floating points <ADD,MAX,MUL,MAD,DIV>Default 8,8,8,8,335
-ptx_opcode_latency_sfu                  100 # Opcode latencies for SFU instructionsDefault 8
-ptx_opcode_latency_tesnor                   64 # Opcode latencies for Tensor instructionsDefault 64
-ptx_opcode_initiation_int          2,2,2,2,8,4 # Opcode initiation intervals for integers <ADD,MAX,MUL,MAD,DIV,SHFL>Default 1,1,4,4,32,4
-ptx_opcode_initiation_fp            2,2,2,2,4 # Opcode initiation intervals for single precision floating points <ADD,MAX,MUL,MAD,DIV>Default 1,1,1,1,5
-ptx_opcode_initiation_dp          4,4,4,4,130 # Opcode initiation intervals for double precision floating points <ADD,MAX,MUL,MAD,DIV>Default 8,8,8,8,130
-ptx_opcode_initiation_sfu                    8 # Opcode initiation intervals for sfu instructionsDefault 8
-ptx_opcode_initiation_tensor                   64 # Opcode initiation intervals for tensor instructionsDefault 64
-cdp_latency         7200,8000,100,12000,1600 # CDP API latency <cudaStreamCreateWithFlags, cudaGetParameterBufferV2_init_perWarp, cudaGetParameterBufferV2_perKernel, cudaLaunchDeviceV2_init_perWarp, cudaLaunchDevicV2_perKernel>Default 7200,8000,100,12000,1600
-network_mode                           2 # Interconnection network mode
-inter_config_file                   mesh # Interconnection network config file
-icnt_in_buffer_limit                  512 # in_buffer_limit
-icnt_out_buffer_limit                  512 # out_buffer_limit
-icnt_subnets                           2 # subnets
-icnt_arbiter_algo                      1 # arbiter_algo
-icnt_verbose                           0 # inct_verbose
-icnt_grant_cycles                      1 # grant_cycles
-gpgpu_ptx_use_cuobjdump                    1 # Use cuobjdump to extract ptx and sass from binaries
-gpgpu_experimental_lib_support                    0 # Try to extract code from cuda libraries [Broken because of unknown cudaGetExportTable]
-checkpoint_option                      0 #  checkpointing flag (0 = no checkpoint)
-checkpoint_kernel                      1 #  checkpointing during execution of which kernel (1- 1st kernel)
-checkpoint_CTA                         0 #  checkpointing after # of CTA (< less than total CTA)
-resume_option                          0 #  resume flag (0 = no resume)
-resume_kernel                          0 #  Resume from which kernel (1= 1st kernel)
-resume_CTA                             0 #  resume from which CTA 
-checkpoint_CTA_t                       0 #  resume from which CTA 
-checkpoint_insn_Y                      0 #  resume from which CTA 
-gpgpu_ptx_convert_to_ptxplus                    0 # Convert SASS (native ISA) to ptxplus and run ptxplus
-gpgpu_ptx_force_max_capability                   70 # Force maximum compute capability
-gpgpu_ptx_inst_debug_to_file                    0 # Dump executed instructions' debug information to file
-gpgpu_ptx_inst_debug_file       inst_debug.txt # Executed instructions' debug output file
-gpgpu_ptx_inst_debug_thread_uid                    1 # Thread UID for executed instructions' debug output
-gpgpu_n_mem_for_l2wb_pcommit                   32 # number of memory modules (e.g. memory controllers) in gpu
-gpgpu_n_sub_partition_per_mchannel_for_l2wb_pcommit                    2 # number of memory subpartition in each memory module
-gpgpu_dl2_bsize_for_l2wb_pcommit                  128 # default 128 bytes
-gpgpu_simd_model                       1 # 1 = post-dominator
-gpgpu_shader_core_pipeline              2048:32 # shader core pipeline config, i.e., {<nthread>:<warpsize>}
-gpgpu_tex_cache:l1  N:4:128:256,L:R:m:N:L,T:512:8,128:2 # per-shader L1 texture cache  (READ-ONLY) config  {<nsets>:<bsize>:<assoc>,<rep>:<wr>:<alloc>:<wr_alloc>,<mshr>:<N>:<merge>,<mq>:<rf>}
-gpgpu_const_cache:l1 N:128:64:8,L:R:f:N:L,S:2:64,4 # per-shader L1 constant memory cache  (READ-ONLY) config  {<nsets>:<bsize>:<assoc>,<rep>:<wr>:<alloc>:<wr_alloc>,<mshr>:<N>:<merge>,<mq>} 
-gpgpu_cache:il1     N:64:128:16,L:R:f:N:L,S:2:48,4 # shader L1 instruction cache config  {<nsets>:<bsize>:<assoc>,<rep>:<wr>:<alloc>:<wr_alloc>,<mshr>:<N>:<merge>,<mq>} 
-gpgpu_cache:dl1     S:1:128:256,L:L:s:N:L,A:256:8,16:0,32 # per-shader L1 data cache config  {<nsets>:<bsize>:<assoc>,<rep>:<wr>:<alloc>:<wr_alloc>,<mshr>:<N>:<merge>,<mq> | none}
-gpgpu_l1_banks                         4 # The number of L1 cache banks
-gpgpu_l1_banks_byte_interleaving                   32 # l1 banks byte interleaving granularity
-gpgpu_l1_banks_hashing_function                    0 # l1 banks hashing function
-gpgpu_l1_latency                      20 # L1 Hit Latency
-gpgpu_smem_latency                    20 # smem Latency
-gpgpu_cache:dl1PrefL1                 none # per-shader L1 data cache config  {<nsets>:<bsize>:<assoc>,<rep>:<wr>:<alloc>:<wr_alloc>,<mshr>:<N>:<merge>,<mq> | none}
-gpgpu_cache:dl1PrefShared                 none # per-shader L1 data cache config  {<nsets>:<bsize>:<assoc>,<rep>:<wr>:<alloc>:<wr_alloc>,<mshr>:<N>:<merge>,<mq> | none}
-gpgpu_gmem_skip_L1D                    0 # global memory access skip L1D cache (implements -Xptxas -dlcm=cg, default=no skip)
-gpgpu_perfect_mem                      0 # enable perfect memory mode (no cache miss)
-n_regfile_gating_group                    4 # group of lanes that should be read/written together)
-gpgpu_clock_gated_reg_file                    0 # enable clock gated reg file for power calculations
-gpgpu_clock_gated_lanes                    0 # enable clock gated lanes for power calculations
-gpgpu_shader_registers                65536 # Number of registers per shader core. Limits number of concurrent CTAs. (default 8192)
-gpgpu_registers_per_block                65536 # Maximum number of registers per CTA. (default 8192)
-gpgpu_ignore_resources_limitation                    0 # gpgpu_ignore_resources_limitation (default 0)
-gpgpu_shader_cta                      32 # Maximum number of concurrent CTAs in shader (default 8)
-gpgpu_num_cta_barriers                   16 # Maximum number of named barriers per CTA (default 16)
-gpgpu_n_clusters                      80 # number of processing clusters
-gpgpu_n_cores_per_cluster                    1 # number of simd cores per cluster
-gpgpu_n_cluster_ejection_buffer_size                   32 # number of packets in ejection buffer
-gpgpu_n_ldst_response_buffer_size                    2 # number of response packets in ld/st unit ejection buffer
-gpgpu_shmem_per_block                65536 # Size of shared memory per thread block or CTA (default 48kB)
-gpgpu_shmem_size                   98304 # Size of shared memory per shader core (default 16kB)
-gpgpu_adaptive_cache_config            536870913 # adaptive_cache_config
-gpgpu_shmem_sizeDefault                98304 # Size of shared memory per shader core (default 16kB)
-gpgpu_shmem_size_PrefL1                16384 # Size of shared memory per shader core (default 16kB)
-gpgpu_shmem_size_PrefShared                16384 # Size of shared memory per shader core (default 16kB)
-gpgpu_shmem_num_banks                   32 # Number of banks in the shared memory in each shader core (default 16)
-gpgpu_shmem_limited_broadcast                    0 # Limit shared memory to do one broadcast per cycle (default on)
-gpgpu_shmem_warp_parts                    1 # Number of portions a warp is divided into for shared memory bank conflict check 
-gpgpu_mem_unit_ports                    1 # The number of memory transactions allowed per core cycle
-gpgpu_shmem_warp_parts                    1 # Number of portions a warp is divided into for shared memory bank conflict check 
-gpgpu_warpdistro_shader                   -1 # Specify which shader core to collect the warp size distribution from
-gpgpu_warp_issue_shader                    0 # Specify which shader core to collect the warp issue distribution from
-gpgpu_local_mem_map                    1 # Mapping from local memory space address to simulated GPU physical address space (default = enabled)
-gpgpu_num_reg_banks                   16 # Number of register banks (default = 8)
-gpgpu_reg_bank_use_warp_id                    0 # Use warp ID in mapping registers to banks (default = off)
-gpgpu_sub_core_model                    1 # Sub Core Volta/Pascal model (default = off)
-gpgpu_enable_specialized_operand_collector                    0 # enable_specialized_operand_collector
-gpgpu_operand_collector_num_units_sp                    4 # number of collector units (default = 4)
-gpgpu_operand_collector_num_units_dp                    0 # number of collector units (default = 0)
-gpgpu_operand_collector_num_units_sfu                    4 # number of collector units (default = 4)
-gpgpu_operand_collector_num_units_int                    0 # number of collector units (default = 0)
-gpgpu_operand_collector_num_units_tensor_core                    4 # number of collector units (default = 4)
-gpgpu_operand_collector_num_units_mem                    2 # number of collector units (default = 2)
-gpgpu_operand_collector_num_units_gen                    8 # number of collector units (default = 0)
-gpgpu_operand_collector_num_in_ports_sp                    1 # number of collector unit in ports (default = 1)
-gpgpu_operand_collector_num_in_ports_dp                    0 # number of collector unit in ports (default = 0)
-gpgpu_operand_collector_num_in_ports_sfu                    1 # number of collector unit in ports (default = 1)
-gpgpu_operand_collector_num_in_ports_int                    0 # number of collector unit in ports (default = 0)
-gpgpu_operand_collector_num_in_ports_tensor_core                    1 # number of collector unit in ports (default = 1)
-gpgpu_operand_collector_num_in_ports_mem                    1 # number of collector unit in ports (default = 1)
-gpgpu_operand_collector_num_in_ports_gen                    8 # number of collector unit in ports (default = 0)
-gpgpu_operand_collector_num_out_ports_sp                    1 # number of collector unit in ports (default = 1)
-gpgpu_operand_collector_num_out_ports_dp                    0 # number of collector unit in ports (default = 0)
-gpgpu_operand_collector_num_out_ports_sfu                    1 # number of collector unit in ports (default = 1)
-gpgpu_operand_collector_num_out_ports_int                    0 # number of collector unit in ports (default = 0)
-gpgpu_operand_collector_num_out_ports_tensor_core                    1 # number of collector unit in ports (default = 1)
-gpgpu_operand_collector_num_out_ports_mem                    1 # number of collector unit in ports (default = 1)
-gpgpu_operand_collector_num_out_ports_gen                    8 # number of collector unit in ports (default = 0)
-gpgpu_coalesce_arch                   60 # Coalescing arch (GT200 = 13, Fermi = 20)
-gpgpu_num_sched_per_core                    4 # Number of warp schedulers per core
-gpgpu_max_insn_issue_per_warp                    1 # Max number of instructions that can be issued per warp in one cycle by scheduler (either 1 or 2)
-gpgpu_dual_issue_diff_exec_units                    1 # should dual issue use two different execution unit resources (Default = 1)
-gpgpu_simt_core_sim_order                    1 # Select the simulation order of cores in a cluster (0=Fix, 1=Round-Robin)
-gpgpu_pipeline_widths 4,4,4,4,4,4,4,4,4,4,8,4,4 # Pipeline widths ID_OC_SP,ID_OC_DP,ID_OC_INT,ID_OC_SFU,ID_OC_MEM,OC_EX_SP,OC_EX_DP,OC_EX_INT,OC_EX_SFU,OC_EX_MEM,EX_WB,ID_OC_TENSOR_CORE,OC_EX_TENSOR_CORE
-gpgpu_tensor_core_avail                    1 # Tensor Core Available (default=0)
-gpgpu_num_sp_units                     4 # Number of SP units (default=1)
-gpgpu_num_dp_units                     4 # Number of DP units (default=0)
-gpgpu_num_int_units                    4 # Number of INT units (default=0)
-gpgpu_num_sfu_units                    4 # Number of SF units (default=1)
-gpgpu_num_tensor_core_units                    4 # Number of tensor_core units (default=1)
-gpgpu_num_mem_units                    1 # Number if ldst units (default=1) WARNING: not hooked up to anything
-gpgpu_scheduler                      gto # Scheduler configuration: < lrr | gto | two_level_active > If two_level_active:<num_active_warps>:<inner_prioritization>:<outer_prioritization>For complete list of prioritization values see shader.h enum scheduler_prioritization_typeDefault: gto
-gpgpu_concurrent_kernel_sm                    0 # Support concurrent kernels on a SM (default = disabled)
-gpgpu_perfect_inst_const_cache                    1 # perfect inst and const cache mode, so all inst and const hits in the cache(default = disabled)
-gpgpu_inst_fetch_throughput                    4 # the number of fetched intruction per warp each cycle
-gpgpu_reg_file_port_throughput                    2 # the number ports of the register file
-specialized_unit_1         0,4,4,4,4,BRA # specialized unit config {<enabled>,<num_units>:<latency>:<initiation>,<ID_OC_SPEC>:<OC_EX_SPEC>,<NAME>}
-specialized_unit_2         0,4,4,4,4,BRA # specialized unit config {<enabled>,<num_units>:<latency>:<initiation>,<ID_OC_SPEC>:<OC_EX_SPEC>,<NAME>}
-specialized_unit_3         0,4,4,4,4,BRA # specialized unit config {<enabled>,<num_units>:<latency>:<initiation>,<ID_OC_SPEC>:<OC_EX_SPEC>,<NAME>}
-specialized_unit_4         0,4,4,4,4,BRA # specialized unit config {<enabled>,<num_units>:<latency>:<initiation>,<ID_OC_SPEC>:<OC_EX_SPEC>,<NAME>}
-specialized_unit_5         0,4,4,4,4,BRA # specialized unit config {<enabled>,<num_units>:<latency>:<initiation>,<ID_OC_SPEC>:<OC_EX_SPEC>,<NAME>}
-specialized_unit_6         0,4,4,4,4,BRA # specialized unit config {<enabled>,<num_units>:<latency>:<initiation>,<ID_OC_SPEC>:<OC_EX_SPEC>,<NAME>}
-specialized_unit_7         0,4,4,4,4,BRA # specialized unit config {<enabled>,<num_units>:<latency>:<initiation>,<ID_OC_SPEC>:<OC_EX_SPEC>,<NAME>}
-specialized_unit_8         0,4,4,4,4,BRA # specialized unit config {<enabled>,<num_units>:<latency>:<initiation>,<ID_OC_SPEC>:<OC_EX_SPEC>,<NAME>}
-gpgpu_perf_sim_memcpy                    1 # Fill the L2 cache on memcpy
-gpgpu_simple_dram_model                    0 # simple_dram_model with fixed latency and BW
-gpgpu_dram_scheduler                    1 # 0 = fifo, 1 = FR-FCFS (defaul)
-gpgpu_dram_partition_queues          64:64:64:64 # i2$:$2d:d2$:$2i
-l2_ideal                               0 # Use a ideal L2 cache that always hit
-gpgpu_cache:dl2     S:32:128:24,L:B:m:L:P,A:192:4,32:0,32 # unified banked L2 data cache config  {<nsets>:<bsize>:<assoc>,<rep>:<wr>:<alloc>:<wr_alloc>,<mshr>:<N>:<merge>,<mq>}
-gpgpu_cache:dl2_texture_only                    0 # L2 cache used for texture only
-gpgpu_n_mem                           32 # number of memory modules (e.g. memory controllers) in gpu
-gpgpu_n_sub_partition_per_mchannel                    2 # number of memory subpartition in each memory module
-gpgpu_n_mem_per_ctrlr                    1 # number of memory chips per memory controller
-gpgpu_memlatency_stat                   14 # track and display latency statistics 0x2 enables MC, 0x4 enables queue logs
-gpgpu_frfcfs_dram_sched_queue_size                   64 # 0 = unlimited (default); # entries per chip
-gpgpu_dram_return_queue_size                  192 # 0 = unlimited (default); # entries per chip
-gpgpu_dram_buswidth                   16 # default = 4 bytes (8 bytes per cycle at DDR)
-gpgpu_dram_burst_length                    2 # Burst length of each DRAM request (default = 4 data bus cycle)
-dram_data_command_freq_ratio                    2 # Frequency ratio between DRAM data bus and command bus (default = 2 times, i.e. DDR)
-gpgpu_dram_timing_opt nbk=16:CCD=1:RRD=3:RCD=12:RAS=28:RP=12:RC=40: CL=12:WL=2:CDLR=3:WR=10:nbkgrp=4:CCDL=2:RTPL=3 # DRAM timing parameters = {nbk:tCCD:tRRD:tRCD:tRAS:tRP:tRC:CL:WL:tCDLR:tWR:nbkgrp:tCCDL:tRTPL}
-gpgpu_l2_rop_latency                  160 # ROP queue latency (default 85)
-dram_latency                         200 # DRAM latency (default 30)
-dram_write_latency                   600 # DRAM write latency (default 100)
-dram_dual_bus_interface                    1 # dual_bus_interface (default = 0) 
-dram_bnk_indexing_policy                    0 # dram_bnk_indexing_policy (0 = normal indexing, 1 = Xoring with the higher bits) (Default = 0)
-dram_bnkgrp_indexing_policy                    1 # dram_bnkgrp_indexing_policy (0 = take higher bits, 1 = take lower bits) (Default = 0)
-dram_seperate_write_queue_enable                    0 # Seperate_Write_Queue_Enable
-dram_write_queue_size             32:28:16 # Write_Queue_Size
-dram_elimnate_rw_turnaround                    0 # elimnate_rw_turnaround i.e set tWTR and tRTW = 0
-icnt_flit_size                        40 # icnt_flit_size
-gpgpu_mem_addr_mapping dramid@8;00000000.00000000.00000000.00000000.0000RRRR.RRRRRRRR.RBBBCCCB.CCCSSSSS # mapping memory address to dram model {dramid@<start bit>;<memory address map>}
-gpgpu_mem_addr_test                    0 # run sweep test to check address mapping for aliased address
-gpgpu_mem_address_mask                    1 # 0 = old addressing mask, 1 = new addressing mask, 2 = new add. mask + flipped bank sel and chip sel bits
-gpgpu_memory_partition_indexing                    0 # 0 = no indexing, 1 = bitwise xoring, 2 = IPoly, 3 = custom indexing
-gpuwattch_xml_file         gpuwattch.xml # GPUWattch XML file
-power_simulation_enabled                    0 # Turn on power simulator (1=On, 0=Off)
-power_per_cycle_dump                    0 # Dump detailed power output each cycle
-power_trace_enabled                    0 # produce a file for the power trace (1=On, 0=Off)
-power_trace_zlevel                     6 # Compression level of the power trace output log (0=no comp, 9=highest)
-steady_power_levels_enabled                    0 # produce a file for the steady power levels (1=On, 0=Off)
-steady_state_definition                  8:4 # allowed deviation:number of samples
-gpgpu_max_cycle                        0 # terminates gpu simulation early (0 = no limit)
-gpgpu_max_insn                         0 # terminates gpu simulation early (0 = no limit)
-gpgpu_max_cta                          0 # terminates gpu simulation early (0 = no limit)
-gpgpu_max_completed_cta                 2700 # terminates gpu simulation early (0 = no limit)
-gpgpu_runtime_stat                   500 # display runtime statistics such as dram utilization {<freq>:<flag>}
-liveness_message_freq                    1 # Minimum number of seconds between simulation liveness messages (0 = always print)
-gpgpu_compute_capability_major                    7 # Major compute capability version number
-gpgpu_compute_capability_minor                    0 # Minor compute capability version number
-gpgpu_flush_l1_cache                    1 # Flush L1 cache at the end of each kernel call
-gpgpu_flush_l2_cache                    0 # Flush L2 cache at the end of each kernel call
-gpgpu_deadlock_detect                    1 # Stop the simulation at deadlock (1=on (default), 0=off)
-gpgpu_ptx_instruction_classification                    0 # if enabled will classify ptx instruction types per kernel (Max 255 kernels now)
-gpgpu_ptx_sim_mode                     0 # Select between Performance (default) or Functional simulation (1)
-gpgpu_clock_domains 1132.0:1132.0:1132.0:850.0 # Clock Domain Frequencies in MhZ {<Core Clock>:<ICNT Clock>:<L2 Clock>:<DRAM Clock>}
-gpgpu_max_concurrent_kernel                    8 # maximum kernels that can run concurrently on GPU
-gpgpu_cflog_interval                    0 # Interval between each snapshot in control flow logger
-visualizer_enabled               48e293453df1fbca85f95b4ef3d81d0c  /home/pli11/Videos/parboil_benchmark/parboil/benchmarks/mri-gridding/build/nvm_ssort_default/mri-gridding
Extracting PTX file and ptxas options    1: mri-gridding.1.sm_70.ptx -arch=sm_70
Extracting PTX file and ptxas options    2: mri-gridding.2.sm_70.ptx -arch=sm_70
      0 # Turn on visualizer output (1=On, 0=Off)
-visualizer_outputfile                 NULL # Specifies the output log file for visualizer
-visualizer_zlevel                      6 # Compression level of the visualizer output log (0=no comp, 9=highest)
-gpgpu_stack_size_limit                 1024 # GPU thread stack size
-gpgpu_heap_size_limit              8388608 # GPU malloc heap size 
-gpgpu_runtime_sync_depth_limit                    2 # GPU device runtime synchronize depth
-gpgpu_runtime_pending_launch_count_limit                 2048 # GPU device runtime pending launch count
-trace_enabled                          0 # Turn on traces
-trace_components                    none # comma seperated list of traces to enable. Complete list found in trace_streams.tup. Default none
-trace_sampling_core                    0 # The core which is printed using CORE_DPRINTF. Default 0
-trace_sampling_memory_partition                   -1 # The memory partition which is printed using MEMPART_DPRINTF. Default -1 (i.e. all)
-enable_ptx_file_line_stats                    1 # Turn on PTX source line statistic profiling. (1 = On)
-ptx_line_stats_filename gpgpu_inst_stats.txt # Output file for PTX source line statistics.
-gpgpu_kernel_launch_latency                 5000 # Kernel launch latency in cycles. Default: 0
-gpgpu_cdp_enabled                      0 # Turn on CDP
-gpgpu_TB_launch_latency                    0 # thread block launch latency in cycles. Default: 0
DRAM Timing Options:
nbk                                    16 # number of banks
CCD                                     1 # column to column delay
RRD                                     3 # minimal delay between activation of rows in different banks
RCD                                    12 # row to column delay
RAS                                    28 # time needed to activate row
RP                                     12 # time needed to precharge (deactivate) row
RC                                     40 # row cycle time
CDLR                                    3 # switching from write to read (changes tWTR)
WR                                     10 # last data-in to row precharge
CL                                     12 # CAS latency
WL                                      2 # Write latency
nbkgrp                                  4 # number of bank groups
CCDL                                    2 # column to column delay between accesses to different bank groups
RTPL                                    3 # read to precharge delay between accesses to different bank groups
Total number of memory sub partition = 64
addr_dec_mask[CHIP]  = 0000000000001f00 	high:13 low:8
addr_dec_mask[BK]    = 00000000000e2000 	high:20 low:13
addr_dec_mask[ROW]   = 00000001fff00000 	high:33 low:20
addr_dec_mask[COL]   = 000000000001c0ff 	high:17 low:0
addr_dec_mask[BURST] = 000000000000001f 	high:5 low:0
sub_partition_id_mask = 0000000000002000
GPGPU-Sim uArch: clock freqs: 1132000000.000000:1132000000.000000:1132000000.000000:850000000.000000
GPGPU-Sim uArch: clock periods: 0.00000000088339222615:0.00000000088339222615:0.00000000088339222615:0.00000000117647058824
*** Initializing Memory Statistics ***
GPGPU-Sim uArch: performance model initialization complete.
self exe links to: /home/pli11/Videos/parboil_benchmark/parboil/benchmarks/mri-gridding/build/nvm_ssort_default/mri-gridding
self exe links to: /home/pli11/Videos/parboil_benchmark/parboil/benchmarks/mri-gridding/build/nvm_ssort_default/mri-gridding
10.1
GPGPU-Sim PTX: __cudaRegisterFatBinary, fat_cubin_handle = 1, filename=default
self exe links to: /home/pli11/Videos/parboil_benchmark/parboil/benchmarks/mri-gridding/build/nvm_ssort_default/mri-gridding
Running md5sum using "md5sum /home/pli11/Videos/parboil_benchmark/parboil/benchmarks/mri-gridding/build/nvm_ssort_default/mri-gridding "
self exe links to: /home/pli11/Videos/parboil_benchmark/parboil/benchmarks/mri-gridding/build/nvm_ssort_default/mri-gridding
Extracting specific PTX file named mri-gridding.1.sm_70.ptx 
Extracting specific PTX file named mri-gridding.2.sm_70.ptx 
EExtracting PTX file and ptxas options    3: mri-gridding.3.sm_70.ptx -arch=sm_70
Extracting PTX file and ptxas options    4: mri-gridding.4.sm_70.ptx -arch=sm_70
xtracting specific PTX file named mri-gridding.3.sm_70.ptx 
Extracting specific PTX file named mri-gridding.4.sm_70.ptx 
self exe links to: /home/pli11/Videos/parboil_benchmark/parboil/benchmarks/mri-gridding/build/nvm_ssort_default/mri-gridding
self exe links to: /home/pli11/Videos/parboil_benchmark/parboil/benchmarks/mri-gridding/build/nvm_ssort_default/mri-gridding
10.1
GPGPU-Sim PTX: __cudaRegisterFatBinary, fat_cubin_handle = 2, filename=default
GPGPU-Sim PTX: __cudaRegisterFunction _Z17gridding_GPU_nvmbP20ReconstructionSamplePjP6float2Pff : hostFun 0x0x404c94, fat_cubin_handle = 2
GPGPU-Sim PTX: Parsing mri-gridding.1.sm_70.ptx
GPGPU-Sim PTX: finished parsing EMBEDDED .ptx file mri-gridding.1.sm_70.ptx
GPGPU-Sim PTX: Parsing mri-gridding.2.sm_70.ptx
GPGPU-Sim PTX: allocating constant region for "cutoff2_c" from 0x100 to 0x104 (global memory space) 1
GPGPU-Sim PTX: allocating constant region for "cutoff_c" from 0x104 to 0x108 (global memory space) 2
GPGPU-Sim PTX: allocating constant region for "gridSize_c" from 0x180 to 0x18c (global memory space) 3
GPGPU-Sim PTX: allocating constant region for "size_xy_c" from 0x18c to 0x190 (global memory space) 4
GPGPU-Sim PTX: allocating constant region for "_1overCutoff2_c" from 0x190 to 0x194 (global memory space) 5
GPGPU-Sim PTX: allocating global region for "NVM_log" from 0x200 to 0x4000200 (global memory space)
GPGPU-Sim PTX: allocating global region for "NVM_flag" from 0x4000200 to 0x4400200 (global memory space)
GPGPU-Sim PTX: instruction assembly for function '_Z14binning_kerneljP20ReconstructionSamplePjS1_S1_jj'...   done.
GPGPU-Sim PTX: instruction assembly for function '_Z19binning_kernel_nvmbjP20ReconstructionSamplePjS1_S1_jj'...   done.
GPGPU-Sim PTX: instruction assembly for function '_Z19binning_kernel_nvmdjP20ReconstructionSamplePjS1_S1_jj'...   done.
GPGPU-Sim PTX: instruction assembly for function '_Z14reorder_kerneliPjP20ReconstructionSampleS1_'...   done.
GPGPU-Sim PTX: instruction assembly for function '_Z19reorder_kernel_nvmaiPjP20ReconstructionSampleS1_'...   done.
GPGPU-Sim PTX: instruction assembly for function '_Z19reorder_kernel_nvmbiPjP20ReconstructionSampleS1_'...   done.
GPGPU-Sim PTX: instruction assembly for function '_Z19reorder_kernel_nvmdiPjP20ReconstructionSampleS1_'...   done.
GPGPU-Sim PTX: instruction assembly for function '_Z19reorder_kernel_nvmgiPjP20ReconstructionSampleS1_'...   done.
GPGPU-Sim PTX: instruction assembly for function '_Z19reorder_kernel_nvmiiPjP20ReconstructionSampleS1_'...   done.
GPGPU-Sim PTX: allocating shared region for "_ZZ12gridding_GPUP20ReconstructionSamplePjP6float2PffE9sharedBin" from 0x0 to 0x600 (shared memory space)
GPGPU-Sim PTX: instruction assembly for function '_Z12gridding_GPUP20ReconstructionSamplePjP6float2Pff'...   done.
GPGPU-Sim PTX: allocating stack frame region for .local "__local_depot10" from 0x0 to 0x8
GPGPU-Sim PTX: allocating shared region for "_ZZ17gridding_GPU_nvmaP20ReconstructionSamplePjP6float2PffE9sharedBin" from 0x0 to 0x600 (shared memory space)
GPGPU-Sim PTX: instruction assembly for function '_Z17gridding_GPU_nvmaP20ReconstructionSamplePjP6float2Pff'...   done.
GPGPU-Sim PTX: allocating stack frame region for .local "__local_depot11" from 0x0 to 0x8
GPGPU-Sim PTX: allocating shared region for "_ZZ17gridding_GPU_nvmbP20ReconstructionSamplePjP6float2PffE9sharedBin" from 0x0 to 0x600 (shared memory space)
GPGPU-Sim PTX: instruction assembly for function '_Z17gridding_GPU_nvmbP20ReconstructionSamplePjP6float2Pff'...   done.
GPGPU-Sim PTX: finished parsing EMBEDDED .ptx file mri-gridding.2.sm_70.ptx
GPGPU-Sim PTX: Parsing mri-gridding.3.sm_70.ptx
GPGPU-Sim PTX: allocating shared region for "s_data" from 0x0 to 0x0 (shared memory space)
GPGPU-Sim PTX: allocating shared region for "_ZZ14scan_L1_kerneljPjS_E6s_data" from 0x0 to 0x1110 (shared memory space)
GPGPU-Sim PTX: instruction assembly for function '_Z14scan_L1_kerneljPjS_'...   done.
GPGPU-Sim PTX: instruction assembly for function '_Z18scan_inter1_kernelPjj'...   done.
GPGPU-Sim PTX: instruction assembly for function '_Z18scan_inter2_kernelPjj'...   done.
GPGPU-Sim PTX: allocating shared region for "_ZZ10uniformAddjPjS_E3uni" from 0x0 to 0x4 (shared memory space)
GPGPU-Sim PTX: instruction assembly for function '_Z10uniformAddjPjS_'...   done.
GPGPU-Sim PTX: finished parsing EMBEDDED .ptx file mri-gridding.3.sm_70.ptx
GPGPU-Sim PTX: Parsing mri-gridding.4.sm_70.ptx
GPGPU-Sim PTX: allocating global region for "NVM_log1" from 0x4400200 to 0x8400200 (global memory space)
GPGPU-Sim PTX: allocating global region for "NVM_log2" from 0x8400200 to 0xc400200 (global memory space)
GPGPU-Sim PTX: allocating global region for "NVM_log3" from 0xc400200 to 0x10400200 (global memory space)
GPGPU-Sim PTX: Warning NVM_flag was declared previous at mri-gridding.2.sm_70.ptx:20 skipping new declaration
GPGPU-Sim PTX: allocating shared region for "_ZZ9splitSortiiPjS_S_E5flags" from 0x0 to 0x1144 (shared memory space)
GPGPU-Sim PTX: allocating shared region for "_ZZ9splitSortiiPjS_S_E7histo_s" from 0x1180 to 0x11c0 (shared memory space)
GPGPU-Sim PTX: instruction assembly for function '_Z9splitSortiiPjS_S_'...   done.
GPGPU-Sim PTX: allocating shared region for "_ZZ14splitSort_nvmoiiPjS_S_E5flags" from 0x0 to 0x1144 (shared memory space)
GPGPU-Sim PTX: allocating shared region for "_ZZ14splitSort_nvmoiiPjS_S_E7histo_s" from 0x1180 to 0x11c0 (shared memory space)
GPGPU-Sim PTX: instruction assembly for function '_Z14splitSort_nvmoiiPjS_S_'...   done.
GPGPU-Sim PTX: allocating shared region for "_ZZ14splitSort_nvmqiiPjS_S_E5flags" from 0x0 to 0x1144 (shared memory space)
GPGPU-Sim PTX: allocating shared region for "_ZZ14splitSort_nvmqiiPjS_S_E7histo_s" from 0x1180 to 0x11c0 (shared memory space)
GPGPU-Sim PTX: instruction assembly for function '_Z14splitSort_nvmqiiPjS_S_'...   done.
GPGPU-Sim PTX: allocating shared region for "_ZZ14splitSort_nvmuiiPjS_S_E5flags" from 0x0 to 0x1144 (shared memory space)
GPGPU-Sim PTX: allocating shared region for "_ZZ14splitSort_nvmuiiPjS_S_E7histo_s" from 0x1180 to 0x11c0 (shared memory space)
GPGPU-Sim PTX: instruction assembly for function '_Z14splitSort_nvmuiiPjS_S_'...   done.
GPGPU-Sim PTX: allocating shared region for "_ZZ14splitSort_nvmwiiPjS_S_E5flags" from 0x0 to 0x1144 (shared memory space)
GPGPU-Sim PTX: allocating shared region for "_ZZ14splitSort_nvmwiiPjS_S_E7histo_s" from 0x1180 to 0x11c0 (shared memory space)
GPGPU-Sim PTX: instruction assembly for function '_Z14splitSort_nvmwiiPjS_S_'...   done.
GPGPU-Sim PTX: allocating shared region for "_ZZ14splitSort_nvm1iiPjS_S_E5flags" from 0x0 to 0x1144 (shared memory space)
GPGPU-Sim PTX: allocating shared region for "_ZZ14splitSort_nvm1iiPjS_S_E7histo_s" from 0x1180 to 0x11c0 (shared memory space)
GPGPU-Sim PTX: instruction assembly for function '_Z14splitSort_nvm1iiPjS_S_'...   done.
GPGPU-Sim PTX: allocating shared region for "_ZZ14splitSort_nvm2iiPjS_S_E5flags" from 0x0 to 0x1144 (shared memory space)
GPGPU-Sim PTX: allocating shared region for "_ZZ14splitSort_nvm2iiPjS_S_E7histo_s" from 0x1180 to 0x11c0 (shared memory space)
GPGPU-Sim PTX: instruction assembly for function '_Z14splitSort_nvm2iiPjS_S_'...   done.
GPGPU-Sim PTX: allocating shared region for "_ZZ14splitSort_nvmbiiPjS_S_E5flags" from 0x0 to 0x1144 (shared memory space)
GPGPU-Sim PTX: allocating shared region for "_ZZ14splitSort_nvmbiiPjS_S_E7histo_s" from 0x1180 to 0x11c0 (shared memory space)
GPGPU-Sim PTX: instruction assembly for function '_Z14splitSort_nvmbiiPjS_S_'...   done.
GPGPU-Sim PTX: allocating shared region for "_ZZ14splitSort_nvmdiiPjS_S_E5flags" from 0x0 to 0x1144 (shared memory space)
GPGPU-Sim PTX: allocating shared region for "_ZZ14splitSort_nvmdiiPjS_S_E7histo_s" from 0x1180 to 0x11c0 (shared memory space)
GPGPU-Sim PTX: instruction assembly for function '_Z14splitSort_nvmdiiPjS_S_'...   done.
GPGPU-Sim PTX: allocating shared region for "_ZZ19splitRearrange_nvmbiiPjS_S_S_S_E7histo_s" from 0x0 to 0x40 (shared memory space)
GPGPU-Sim PTX: allocating shared region for "_ZZ19splitRearrange_nvmbiiPjS_S_S_S_E7array_s" from 0x80 to 0x1080 (shared memory space)
GPGPU-Sim PTX: instruction assembly for function '_Z19splitRearrange_nvmbiiPjS_S_S_S_'...   done.
GPGPU-Sim PTX: allocating shared region for "_ZZ19splitRearrange_nvmdiiPjS_S_S_S_E7histo_s" from 0x0 to 0x40 (shared memory space)
GPGPU-Sim PTX: allocating shared region for "_ZZ19splitRearrange_nvmdiiPjS_S_S_S_E7array_s" from 0x80 to 0x1080 (shared memory space)
GPGPU-Sim PTX: instruction assembly for function '_Z19splitRearrange_nvmdiiPjS_S_S_S_'...   done.
GPGPU-Sim PTX: allocating shared region for "_ZZ19splitRearrange_nvmoiiPjS_S_S_S_E7histo_s" from 0x0 to 0x40 (shared memory space)
GPGPU-Sim PTX: allocating shared region for "_ZZ19splitRearrange_nvmoiiPjS_S_S_S_E7array_s" from 0x80 to 0x1080 (shared memory space)
GPGPU-Sim PTX: instruction assembly for function '_Z19splitRearrange_nvmoiiPjS_S_S_S_'...   done.
GPGPU-Sim PTX: allocating shared region for "_ZZ19splitRearrange_nvmqiiPjS_S_S_S_E7histo_s" from 0x0 to 0x40 (shared memory space)
GPGPU-Sim PTX: allocating shared region for "_ZZ19splitRearrange_nvmqiiPjS_S_S_S_E7array_s" from 0x80 to 0x1080 (shared memory space)
GPGPU-Sim PTX: instruction assembly for function '_Z19splitRearrange_nvmqiiPjS_S_S_S_'...   done.
GPGPU-Sim PTX: allocating shared region for "_ZZ19splitRearrange_nvmuiiPjS_S_S_S_E7histo_s" from 0x0 to 0x40 (shared memory space)
GPGPU-Sim PTX: allocating shared region for "_ZZ19splitRearrange_nvmuiiPjS_S_S_S_E7array_s" from 0x80 to 0x1080 (shared memory space)
GPGPU-Sim PTX: instruction assembly for function '_Z19splitRearrange_nvmuiiPjS_S_S_S_'...   done.
GPGPU-Sim PTX: allocating shared region for "_ZZ19splitRearrange_nvmwiiPjS_S_S_S_E7histo_s" from 0x0 to 0x40 (shared memory space)
GPGPU-Sim PTX: allocating shared region for "_ZZ19splitRearrange_nvmwiiPjS_S_S_S_E7array_s" from 0x80 to 0x1080 (shared memory space)
GPGPU-Sim PTX: instruction assembly for function '_Z19splitRearrange_nvmwiiPjS_S_S_S_'...   done.
GPGPU-Sim PTX: allocating shared region for "_ZZ19splitRearrange_nvm1iiPjS_S_S_S_E7histo_s" from 0x0 to 0x40 (shared memory space)
GPGPU-Sim PTX: allocating shared region for "_ZZ19splitRearrange_nvm1iiPjS_S_S_S_E7array_s" from 0x80 to 0x1080 (shared memory space)
GPGPU-Sim PTX: instruction assembly for function '_Z19splitRearrange_nvm1iiPjS_S_S_S_'...   done.
GPGPU-Sim PTX: allocating shared region for "_ZZ19splitRearrange_nvm2iiPjS_S_S_S_E7histo_s" from 0x0 to 0x40 (shared memory space)
GPGPU-Sim PTX: allocating shared region for "_ZZ19splitRearrange_nvm2iiPjS_S_S_S_E7array_s" from 0x80 to 0x1080 (shared memory space)
GPGPU-Sim PTX: instruction assembly for function '_Z19splitRearrange_nvm2iiPjS_S_S_S_'...   done.
GPGPU-Sim PTX: allocating shared region for "_ZZ14splitSort_nvmgiiPjS_S_E5flags" from 0x0 to 0x1144 (shared memory space)
GPGPU-Sim PTX: allocating shared region for "_ZZ14splitSort_nvmgiiPjS_S_E7histo_s" from 0x1180 to 0x11c0 (shared memory space)
GPGPU-Sim PTX: instruction assembly for function '_Z14splitSort_nvmgiiPjS_S_'...   done.
GPGPU-Sim PTX: allocating shared region for "_ZZ14splitSort_nvm3iiPjS_S_E5flags" from 0x0 to 0x1144 (shared memory space)
GPGPU-Sim PTX: allocating shared region for "_ZZ14splitSort_nvm3iiPjS_S_E7histo_s" from 0x1180 to 0x11c0 (shared memory space)
GPGPU-Sim PTX: instruction assembly for function '_Z14splitSort_nvm3iiPjS_S_'...   done.
GPGPU-Sim PTX: allocating shared region for "_ZZ14splitSort_nvm4iiPjS_S_E5flags" from 0x0 to 0x1144 (shared memory space)
GPGPU-Sim PTX: allocating shared region for "_ZZ14splitSort_nvm4iiPjS_S_E7histo_s" from 0x1180 to 0x11c0 (shared memory space)
GPGPU-Sim PTX: instruction assembly for function '_Z14splitSort_nvm4iiPjS_S_'...   done.
GPGPU-Sim PTX: allocating shared region for "_ZZ14splitSort_nvmiiiPjS_S_E5flags" from 0x0 to 0x1144 (shared memory space)
GPGPU-Sim PTX: allocating shared region for "_ZZ14splitSort_nvmiiiPjS_S_E7histo_s" from 0x1180 to 0x11c0 (shared memory space)
GPGPU-Sim PTX: instruction assembly for function '_Z14splitSort_nvmiiiPjS_S_'...   done.
GPGPU-Sim PTX: allocating shared region for "_ZZ14splitSort_nvm5iiPjS_S_E5flags" from 0x0 to 0x1144 (shared memory space)
GPGPU-Sim PTX: allocating shared region for "_ZZ14splitSort_nvm5iiPjS_S_E7histo_s" from 0x1180 to 0x11c0 (shared memory space)
GPGPU-Sim PTX: instruction assembly for function '_Z14splitSort_nvm5iiPjS_S_'...   done.
GPGPU-Sim PTX: allocating shared region for "_ZZ14splitSort_nvm6iiPjS_S_E5flags" from 0x0 to 0x1144 (shared memory space)
GPGPU-Sim PTX: allocating shared region for "_ZZ14splitSort_nvm6iiPjS_S_E7histo_s" from 0x1180 to 0x11c0 (shared memory space)
GPGPU-Sim PTX: instruction assembly for function '_Z14splitSort_nvm6iiPjS_S_'...   done.
GPGPU-Sim PTX: allocating shared region for "_ZZ19splitRearrange_nvmgiiPjS_S_S_S_E7histo_s" from 0x0 to 0x40 (shared memory space)
GPGPU-Sim PTX: allocating shared region for "_ZZ19splitRearrange_nvmgiiPjS_S_S_S_E7array_s" from 0x80 to 0x1080 (shared memory space)
GPGPU-Sim PTX: instruction assembly for function '_Z19splitRearrange_nvmgiiPjS_S_S_S_'...   done.
GPGPU-Sim PTX: allocating shared region for "_ZZ19splitRearrange_nvm3iiPjS_S_S_S_E7histo_s" from 0x0 to 0x40 (shared memory space)
GPGPU-Sim PTX: allocating shared region for "_ZZ19splitRearrange_nvm3iiPjS_S_S_S_E7array_s" from 0x80 to 0x1080 (shared memory space)
GPGPU-Sim PTX: instruction assembly for function '_Z19splitRearrange_nvm3iiPjS_S_S_S_'...   done.
GPGPU-Sim PTX: allocating shared region for "_ZZ19splitRearrange_nvm4iiPjS_S_S_S_E7histo_s" from 0x0 to 0x40 (shared memory space)
GPGPU-Sim PTX: allocating shared region for "_ZZ19splitRearrange_nvm4iiPjS_S_S_S_E7array_s" from 0x80 to 0x1080 (shared memory space)
GPGPU-Sim PTX: instruction assembly for function '_Z19splitRearrange_nvm4iiPjS_S_S_S_'...   done.
GPGPU-Sim PTX: allocating shared region for "_ZZ19splitRearrange_nvmiiiPjS_S_S_S_E7histo_s" from 0x0 to 0x40 (shared memory space)
GPGPU-Sim PTX: allocating shared region for "_ZZ19splitRearrange_nvmiiiPjS_S_S_S_E7array_s" from 0x80 to 0x1080 (shared memory space)
GPGPU-Sim PTX: instruction assembly for function '_Z19splitRearrange_nvmiiiPjS_S_S_S_'...   done.
GPGPU-Sim PTX: allocating shared region for "_ZZ19splitRearrange_nvm6iiPjS_S_S_S_E7histo_s" from 0x0 to 0x40 (shared memory space)
GPGPU-Sim PTX: allocating shared region for "_ZZ19splitRearrange_nvm6iiPjS_S_S_S_E7array_s" from 0x80 to 0x1080 (shared memory space)
GPGPU-Sim PTX: instruction assembly for function '_Z19splitRearrange_nvm6iiPjS_S_S_S_'...   done.
GPGPU-Sim PTX: allocating shared region for "_ZZ19splitRearrange_nvm5iiPjS_S_S_S_E7histo_s" from 0x0 to 0x40 (shared memory space)
GPGPU-Sim PTX: allocating shared region for "_ZZ19splitRearrange_nvm5iiPjS_S_S_S_E7array_s" from 0x80 to 0x1080 (shared memory space)
GPGPU-Sim PTX: instruction assembly for function '_Z19splitRearrange_nvm5iiPjS_S_S_S_'...   done.
GPGPU-Sim PTX: allocating shared region for "_ZZ14splitRearrangeiiPjS_S_S_S_E7histo_s" from 0x0 to 0x40 (shared memory space)
GPGPU-Sim PTX: allocating shared region for "_ZZ14splitRearrangeiiPjS_S_S_S_E7array_s" from 0x80 to 0x1080 (shared memory space)
GPGPU-Sim PTX: instruction assembly for function '_Z14splitRearrangeiiPjS_S_S_S_'...   done.
GPGPU-Sim PTX: finished parsing EMBEDDED .ptx file mri-gridding.4.sm_70.ptx
GPGPU-Sim PTX: loading globals with explicit initializers... 
GPGPU-Sim PTX: finished loading globals (0 bytes total).
GPGPU-Sim PTX: loading constants with explicit initializers...  done.
GPGPU-Sim PTX: Loading PTXInfo from mri-gridding.1.sm_70.ptx
GPGPU-Sim PTX: Loading PTXInfo from mri-gridding.2.sm_70.ptx
GPGPU-Sim PTX: Binary info : gmem=71303168, cmem=28
GPGPU-Sim PTX: Kernel '_Z17gridding_GPU_nvmbP20ReconstructionSamplePjP6float2Pff' : regs=40, lmem=0, smem=1536, cmem=388
GPGPU-Sim PTX: Kernel '_Z17gridding_GPU_nvmaP20ReconstructionSamplePjP6float2Pff' : regs=40, lmem=0, smem=1536, cmem=388
GPGPU-Sim PTX: Kernel '_Z12gridding_GPUP20ReconstructionSamplePjP6float2Pff' : regs=39, lmem=0, smem=1536, cmem=388
GPGPU-Sim PTX: Kernel '_Z19reorder_kernel_nvmiiPjP20ReconstructionSampleS1_' : regs=24, lmem=0, smem=0, cmem=384
GPGPU-Sim PTX: Kernel '_Z19reorder_kernel_nvmgiPjP20ReconstructionSampleS1_' : regs=24, lmem=0, smem=0, cmem=384
GPGPU-Sim PTX: Kernel '_Z19reorder_kernel_nvmdiPjP20ReconstructionSampleS1_' : regs=22, lmem=0, smem=0, cmem=384
GPGPU-Sim PTX: Kernel '_Z19reorder_kernel_nvmbiPjP20ReconstructionSampleS1_' : regs=22, lmem=0, smem=0, cmem=384
GPGPU-Sim PTX: Kernel '_Z19reorder_kernel_nvmaiPjP20ReconstructionSampleS1_' : regs=22, lmem=0, smem=0, cmem=384
GPGPU-Sim PTX: Kernel '_Z14reorder_kerneliPjP20ReconstructionSampleS1_' : regs=22, lmem=0, smem=0, cmem=384
GPGPU-Sim PTX: Kernel '_Z19binning_kernel_nvmdjP20ReconstructionSamplePjS1_S1_jj' : regs=16, lmem=0, smem=0, cmem=400
GPGPU-Sim PTX: Kernel '_Z19binning_kernel_nvmbjP20ReconstructionSamplePjS1_S1_jj' : regs=16, lmem=0, smem=0, cmem=400
GPGPU-Sim PTX: Kernel '_Z14binning_kerneljP20ReconstructionSamplePjS1_S1_jj' : regs=16, lmem=0, smem=0, cmem=400
GPGPU-Sim PTX: Loading PTXInfo from mri-gridding.3.sm_70.ptx
GPGPU-Sim PTX: Kernel '_Z10uniformAddjPjS_' : regs=8, lmem=0, smem=16, cmem=376
GPGPU-Sim PTX: Kernel '_Z18scan_inter2_kernelPjj' : regs=19, lmem=0, smem=0, cmem=364
GPGPU-Sim PTX: Kernel '_Z18scan_inter1_kernelPjj' : regs=20, lmem=0, smem=0, cmem=364
GPGPU-Sim PTX: Kernel '_Z14scan_L1_kerneljPjS_' : regs=22, lmem=0, smem=4368, cmem=376
GPGPU-Sim PTX: Loading PTXInfo from mri-gridding.4.sm_70.ptx
GPGPU-Sim PTX: Kernel '_Z14splitRearrangeiiPjS_S_S_S_' : regs=28, lmem=0, smem=4160, cmem=400
GPGPU-Sim PTX: Kernel '_Z19splitRearrange_nvm5iiPjS_S_S_S_' : regs=28, lmem=0, smem=4160, cmem=400
GPGPU-Sim PTX: Kernel '_Z19splitRearrange_nvm6iiPjS_S_S_S_' : regs=28, lmem=0, smem=4160, cmem=400
GPGPU-Sim PTX: Kernel '_Z19splitRearrange_nvmiiiPjS_S_S_S_' : regs=30, lmem=0, smem=4160, cmem=400
GPGPU-Sim PTX: Kernel '_Z19splitRearrange_nvm4iiPjS_S_S_S_' : regs=32, lmem=0, smem=4160, cmem=400
GPGPU-Sim PTX: Kernel '_Z19splitRearrange_nvm3iiPjS_S_S_S_' : regs=32, lmem=0, smem=4160, cmem=400
GPGPU-Sim PTX: Kernel '_Z19splitRearrange_nvmgiiPjS_S_S_S_' : regs=32, lmem=0, smem=4160, cmem=400
GPGPU-Sim PTX: Kernel '_Z14splitSort_nvm6iiPjS_S_' : regs=48, lmem=0, smem=4484, cmem=384
GPGPU-Sim PTX: Kernel '_Z14splitSort_nvm5iiPjS_S_' : regs=48, lmem=0, smem=4484, cmem=384
GPGPU-Sim PTX: Kernel '_Z14splitSort_nvmiiiPjS_S_' : regs=48, lmem=0, smem=4484, cmem=384
GPGPU-Sim PTX: Kernel '_Z14splitSort_nvm4iiPjS_S_' : regs=48, lmem=0, smem=4484, cmem=384
GPGPU-Sim PTX: Kernel '_Z14splitSort_nvm3iiPjS_S_' : regs=48, lmem=0, smem=4484, cmem=384
GPGPU-Sim PTX: Kernel '_Z14splitSort_nvmgiiPjS_S_' : regs=43, lmem=0, smem=4484, cmem=384
GPGPU-Sim PTX: Kernel '_Z19splitRearrange_nvm2iiPjS_S_S_S_' : regs=30, lmem=0, smem=4160, cmem=400
GPGPU-Sim PTX: Kernel '_Z19splitRearrange_nvm1iiPjS_S_S_S_' : regs=30, lmem=0, smem=4160, cmem=400
GPGPU-Sim PTX: Kernel '_Z19splitRearrange_nvmwiiPjS_S_S_S_' : regs=28, lmem=0, smem=4160, cmem=400
GPGPU-Sim PTX: Kernel '_Z19splitRearrange_nvmuiiPjS_S_S_S_' : regs=26, lmem=0, smem=4160, cmem=400
GPGPU-Sim PTX: Kernel '_Z19splitRearrange_nvmqiiPjS_S_S_S_' : regs=28, lmem=0, smem=4160, cmem=400
GPGPU-Sim PTX: Kernel '_Z19splitRearrange_nvmoiiPjS_S_S_S_' : regs=26, lmem=0, smem=4160, cmem=400
GPGPU-Sim PTX: Kernel '_Z19splitRearrange_nvmdiiPjS_S_S_S_' : regs=28, lmem=0, smem=4160, cmem=400
GPGPU-Sim PTX: Kernel '_Z19splitRearrange_nvmbiiPjS_S_S_S_' : regs=26, lmem=0, smem=4160, cmem=400
GPGPU-Sim PTX: Kernel '_Z14splitSort_nvmdiiPjS_S_' : regs=43, lmem=0, smem=4484, cmem=384
GPGPU-Sim PTX: Kernel '_Z14splitSort_nvmbiiPjS_S_' : regs=43, lmem=0, smem=4484, cmem=384
GPGPU-Sim PTX: Kernel '_Z14splitSort_nvm2iiPjS_S_' : regs=43, lmem=0, smem=4484, cmem=384
GPGPU-Sim PTX: Kernel '_Z14splitSort_nvm1iiPjS_S_' : regs=43, lmem=0, smem=4484, cmem=384
GPGPU-Sim PTX: Kernel '_Z14splitSort_nvmwiiPjS_S_' : regs=43, lmem=0, smem=4484, cmem=384
GPGPU-Sim PTX: Kernel '_Z14splitSort_nvmuiiPjS_S_' : regs=43, lmem=0, smem=4484, cmem=384
GPGPU-Sim PTX: Kernel '_Z14splitSort_nvmqiiPjS_S_' : regs=43, lmem=0, smem=4484, cmem=384
GPGPU-Sim PTX: Kernel '_Z14splitSort_nvmoiiPjS_S_' : regs=43, lmem=0, smem=4484, cmem=384
GPGPU-Sim PTX: Kernel '_Z9splitSortiiPjS_S_' : regs=43, lmem=0, smem=4484, cmem=384
GPGPU-Sim PTX: __cudaRegisterFunction _Z17gridding_GPU_nvmaP20ReconstructionSamplePjP6float2Pff : hostFun 0x0x404aee, fat_cubin_handle = 2
GPGPU-Sim PTX: __cudaRegisterFunction _Z12gridding_GPUP20ReconstructionSamplePjP6float2Pff : hostFun 0x0x404948, fat_cubin_handle = 2
GPGPU-Sim PTX: __cudaRegisterFunction _Z19reorder_kernel_nvmiiPjP20ReconstructionSampleS1_ : hostFun 0x0x4047b2, fat_cubin_handle = 2
GPGPU-Sim PTX: __cudaRegisterFunction _Z19reorder_kernel_nvmgiPjP20ReconstructionSampleS1_ : hostFun 0x0x40463d, fat_cubin_handle = 2
GPGPU-Sim PTX: __cudaRegisterFunction _Z19reorder_kernel_nvmdiPjP20ReconstructionSampleS1_ : hostFun 0x0x4044c8, fat_cubin_handle = 2
GPGPU-Sim PTX: __cudaRegisterFunction _Z19reorder_kernel_nvmbiPjP20ReconstructionSampleS1_ : hostFun 0x0x404353, fat_cubin_handle = 2
GPGPU-Sim PTX: __cudaRegisterFunction _Z19reorder_kernel_nvmaiPjP20ReconstructionSampleS1_ : hostFun 0x0x4041de, fat_cubin_handle = 2
GPGPU-Sim PTX: __cudaRegisterFunction _Z14reorder_kerneliPjP20ReconstructionSampleS1_ : hostFun 0x0x404069, fat_cubin_handle = 2
GPGPU-Sim PTX: __cudaRegisterFunction _Z19binning_kernel_nvmdjP20ReconstructionSamplePjS1_S1_jj : hostFun 0x0x403ede, fat_cubin_handle = 2
GPGPU-Sim PTX: __cudaRegisterFunction _Z19binning_kernel_nvmbjP20ReconstructionSamplePjS1_S1_jj : hostFun 0x0x403ce5, fat_cubin_handle = 2
GPGPU-Sim PTX: __cudaRegisterFunction _Z14binning_kerneljP20ReconstructionSamplePjS1_S1_jj : hostFun 0x0x403aec, fat_cubin_handle = 2
GPGPU-Sim PTX: __cudaRegisterVar: hostVar = 0x61c470; deviceAddress = cutoff2_c; deviceName = cutoff2_c
GPGPU-Sim PTX: __cudaRegisterVar: Registering const memory space of 4 bytes
GPGPU-Sim PTX registering constant cutoff2_c (4 bytes) to name mapping
GPGPU-Sim PTX: __cudaRegisterVar: hostVar = 0x61c474; deviceAddress = cutoff_c; deviceName = cutoff_c
GPGPU-Sim PTX: __cudaRegisterVar: Registering const memory space of 4 bytes
GPGPU-Sim PTX registering constant cutoff_c (4 bytes) to name mapping
GPGPU-Sim PTX: __cudaRegisterVar: hostVar = 0x61c478; deviceAddress = gridSize_c; deviceName = gridSize_c
GPGPU-Sim PTX: __cudaRegisterVar: Registering const memory space of 12 bytes
GPGPU-Sim PTX registering constant gridSize_c (12 bytes) to name mapping
GPGPU-Sim PTX: __cudaRegisterVar: hostVar = 0x61c484; deviceAddress = size_xy_c; deviceName = size_xy_c
GPGPU-Sim PTX: __cudaRegisterVar: Registering const memory space of 4 bytes
GPGPU-Sim PTX registering constant size_xy_c (4 bytes) to name mapping
GPGPU-Sim PTX: __cudaRegisterVar: hostVar = 0x61c488; deviceAddress = _1overCutoff2_c; deviceName = _1overCutoff2_c
GPGPU-Sim PTX: __cudaRegisterVar: Registering const memory space of 4 bytes
GPGPU-Sim PTX registering constant _1overCutoff2_c (4 bytes) to name mapping
GPGPU-Sim PTX: __cudaRegisterVar: hostVar = 0x61c4a0; deviceAddress = NVM_log; deviceName = NVM_log
GPGPU-Sim PTX: __cudaRegisterVar: Registering const memory space of 67108864 bytes
GPGPU-Sim PTX registering global NVM_log hostVar to name mapping
GPGPU-Sim PTX: __cudaRegisterVar: hostVar = 0x461c4a0; deviceAddress = NVM_flag; deviceName = NVM_flag
GPGPU-Sim PTX: __cudaRegisterVar: Registering const memory space of 4194304 bytes
GPGPU-Sim PTX registering global NVM_flag hostVar to name mapping
self exe links to: /home/pli11/Videos/parboil_benchmark/parboil/benchmarks/mri-gridding/build/nvm_ssort_default/mri-gridding
self exe links to: /home/pli11/Videos/parboil_benchmark/parboil/benchmarks/mri-gridding/build/nvm_ssort_default/mri-gridding
10.1
GPGPU-Sim PTX: __cudaRegisterFatBinary, fat_cubin_handle = 3, filename=default
GPGPU-Sim PTX: __cudaRegisterFunction _Z10uniformAddjPjS_ : hostFun 0x0x405ec1, fat_cubin_handle = 3
GPGPU-Sim PTX: __cudaRegisterFunction _Z18scan_inter2_kernelPjj : hostFun 0x0x405d6f, fat_cubin_handle = 3
GPGPU-Sim PTX: __cudaRegisterFunction _Z18scan_inter1_kernelPjj : hostFun 0x0x405c33, fat_cubin_handle = 3
GPGPU-Sim PTX: __cudaRegisterFunction _Z14scan_L1_kerneljPjS_ : hostFun 0x0x405aef, fat_cubin_handle = 3
self exe links to: /home/pli11/Videos/parboil_benchmark/parboil/benchmarks/mri-gridding/build/nvm_ssort_default/mri-gridding
self exe links to: /home/pli11/Videos/parboil_benchmark/parboil/benchmarks/mri-gridding/build/nvm_ssort_default/mri-gridding
10.1
GPGPU-Sim PTX: __cudaRegisterFatBinary, fat_cubin_handle = 4, filename=default
GPGPU-Sim PTX: __cudaRegisterFunction _Z14splitRearrangeiiPjS_S_S_S_ : hostFun 0x0x40a3f5, fat_cubin_handle = 4
GPGPU-Sim PTX: __cudaRegisterFunction _Z19splitRearrange_nvm5iiPjS_S_S_S_ : hostFun 0x0x40a1fd, fat_cubin_handle = 4
GPGPU-Sim PTX: __cudaRegisterFunction _Z19splitRearrange_nvm6iiPjS_S_S_S_ : hostFun 0x0x40a005, fat_cubin_handle = 4
GPGPU-Sim PTX: __cudaRegisterFunction _Z19splitRearrange_nvmiiiPjS_S_S_S_ : hostFun 0x0x409e0d, fat_cubin_handle = 4
GPGPU-Sim PTX: __cudaRegisterFunction _Z19splitRearrange_nvm4iiPjS_S_S_S_ : hostFun 0x0x409c15, fat_cubin_handle = 4
GPGPU-Sim PTX: __cudaRegisterFunction _Z19splitRearrange_nvm3iiPjS_S_S_S_ : hostFun 0x0x409a1d, fat_cubin_handle = 4
GPGPU-Sim PTX: __cudaRegisterFunction _Z19splitRearrange_nvmgiiPjS_S_S_S_ : hostFun 0x0x409825, fat_cubin_handle = 4
GPGPU-Sim PTX: __cudaRegisterFunction _Z14splitSort_nvm6iiPjS_S_ : hostFun 0x0x40963a, fat_cubin_handle = 4
GPGPU-Sim PTX: __cudaRegisterFunction _Z14splitSort_nvm5iiPjS_S_ : hostFun 0x0x4094a4, fat_cubin_handle = 4
GPGPU-Sim PTX: __cudaRegisterFunction _Z14splitSort_nvmiiiPjS_S_ : hostFun 0x0x40930e, fat_cubin_handle = 4
GPGPU-Sim PTX: __cudaRegisterFunction _Z14splitSort_nvm4iiPjS_S_ : hostFun 0x0x409178, fat_cubin_handle = 4
GPGPU-Sim PTX: __cudaRegisterFunction _Z14splitSort_nvm3iiPjS_S_ : hostFun 0x0x408fe2, fat_cubin_handle = 4
GPGPU-Sim PTX: __cudaRegisterFunction _Z14splitSort_nvmgiiPjS_S_ : hostFun 0x0x408e4c, fat_cubin_handle = 4
GPGPU-Sim PTX: __cudaRegisterFunction _Z19splitRearrange_nvm2iiPjS_S_S_S_ : hostFun 0x0x408ca9, fat_cubin_handle = 4
GPGPU-Sim PTX: __cudaRegisterFunction _Z19splitRearrange_nvm1iiPjS_S_S_S_ : hostFun 0x0x408ab1, fat_cubin_handle = 4
GPGPU-Sim PTX: __cudaRegisterFunction _Z19splitRearrange_nvmwiiPjS_S_S_S_ : hostFun 0x0x4088b9, fat_cubin_handle = 4
GPGPU-Sim PTX: __cudaRegisterFunction _Z19splitRearrange_nvmuiiPjS_S_S_S_ : hostFun 0x0x4086c1, fat_cubin_handle = 4
GPGPU-Sim PTX: __cudaRegisterFunction _Z19splitRearrange_nvmqiiPjS_S_S_S_ : hostFun 0x0x4084c9, fat_cubin_handle = 4
GPGPU-Sim PTX: __cudaRegisterFunction _Z19splitRearrange_nvmoiiPjS_S_S_S_ : hostFun 0x0x4082d1, fat_cubin_handle = 4
GPGPU-Sim PTX: __cudaRegisterFunction _Z19splitRearrange_nvmdiiPjS_S_S_S_ : hostFun 0x0x4080d9, fat_cubin_handle = 4
GPGPU-Sim PTX: __cudaRegisterFunction _Z19splitRearrange_nvmbiiPjS_S_S_S_ : hostFun 0x0x407ee1, fat_cubin_handle = 4
GPGPU-Sim PTX: __cudaRegisterFunction _Z14splitSort_nvmdiiPjS_S_ : hostFun 0x0x407cf6, fat_cubin_handle = 4
GPGPU-Sim PTX: __cudaRegisterFunction _Z14splitSort_nvmbiiPjS_S_ : hostFun 0x0x407b60, fat_cubin_handle = 4
GPGPU-Sim PTX: __cudaRegisterFunction _Z14splitSort_nvm2iiPjS_S_ : hostFun 0x0x4079ca, fat_cubin_handle = 4
GPGPU-Sim PTX: __cudaRegisterFunction _Z14splitSort_nvm1iiPjS_S_ : hostFun 0x0x407834, fat_cubin_handle = 4
GPGPU-Sim PTX: __cudaRegisterFunction _Z14splitSort_nvmwiiPjS_S_ : hostFun 0x0x40769e, fat_cubin_handle = 4
GPGPU-Sim PTX: __cudaRegisterFunction _Z14splitSort_nvmuiiPjS_S_ : hostFun 0x0x407508, fat_cubin_handle = 4
GPGPU-Sim PTX: __cudaRegisterFunction _Z14splitSort_nvmqiiPjS_S_ : hostFun 0x0x407372, fat_cubin_handle = 4
GPGPU-Sim PTX: __cudaRegisterFunction _Z14splitSort_nvmoiiPjS_S_ : hostFun 0x0x4071dc, fat_cubin_handle = 4
GPGPU-Sim PTX: __cudaRegisterFunction _Z9splitSortiiPjS_S_ : hostFun 0x0x407046, fat_cubin_handle = 4
GPGPU-Sim PTX: __cudaRegisterVar: hostVar = 0x4a1c580; deviceAddress = NVM_log1; deviceName = NVM_log1
GPGPU-Sim PTX: __cudaRegisterVar: Registering const memory space of 67108864 bytes
GPGPU-Sim PTX registering global NVM_log1 hostVar to name mapping
GPGPU-Sim PTX: __cudaRegisterVar: hostVar = 0x8a1c580; deviceAddress = NVM_log2; deviceName = NVM_log2
GPGPU-Sim PTX: __cudaRegisterVar: Registering const memory space of 67108864 bytes
GPGPU-Sim PTX registering global NVM_log2 hostVar to name mapping
GPGPU-Sim PTX: __cudaRegisterVar: hostVar = 0xca1c580; deviceAddress = NVM_log3; deviceName = NVM_log3
GPGPU-Sim PTX: __cudaRegisterVar: Registering const memory space of 67108864 bytes
GPGPU-Sim PTX registering global NVM_log3 hostVar to name mapping
GPGPU-Sim PTX: __cudaRegisterVar: hostVar = 0x10a1c580; deviceAddress = NVM_flag; deviceName = NVM_flag
GPGPU-Sim PTX: __cudaRegisterVar: Registering const memory space of 4194304 bytes
GPGPU-Sim PTX registering global NVM_flag hostVar to name mapping

Reading parameters
  Total amount of GPU memory: 2147483648 bytes
  Number of samples = 2655910
  Grid Size = 256x256x256
  Input Matrix Size = 60x60x60
  Recon Matrix Size = 60x60x60
  Kernel Width = 5.000000
  KMax = 150.00 150.00 150.00
  Oversampling = 5.000000
  GPU Binsize = 32
  Use LUT = Yes
Reading input data from files
Generating Look-Up Table
Running gold version
Running CUDA version
GPGPU-Sim PTX: cudaMemcpyToSymbol: symbol = 0x61c470
GPGPU-Sim PTX: starting gpgpu_ptx_sim_memcpy_symbol with hostVar 0x0x61c470
GPGPU-Sim PTX: gpgpu_ptx_sim_memcpy_symbol: Found PTX symbol w/ hostVar=0x61c470
GPGPU-Sim PTX: gpgpu_ptx_sim_memcpy_symbol: copying const memory 4 bytes  to  symbol cutoff2_c+0 @0x100 ...
GPGPU-Sim PTX: cudaMemcpyToSymbol: symbol = 0x61c474
GPGPU-Sim PTX: starting gpgpu_ptx_sim_memcpy_symbol with hostVar 0x0x61c474
GPGPU-Sim PTX: gpgpu_ptx_sim_memcpy_symbol: Found PTX symbol w/ hostVar=0x61c474
GPGPU-Sim PTX: gpgpu_ptx_sim_memcpy_symbol: copying const memory 4 bytes  to  symbol cutoff_c+0 @0x104 ...
GPGPU-Sim PTX: cudaMemcpyToSymbol: symbol = 0x61c478
GPGPU-Sim PTX: starting gpgpu_ptx_sim_memcpy_symbol with hostVar 0x0x61c478
GPGPU-Sim PTX: gpgpu_ptx_sim_memcpy_symbol: Found PTX symbol w/ hostVar=0x61c478
GPGPU-Sim PTX: gpgpu_ptx_sim_memcpy_symbol: copying const memory 12 bytes  to  symbol gridSize_c+0 @0x180 ...
GPGPU-Sim PTX: cudaMemcpyToSymbol: symbol = 0x61c484
GPGPU-Sim PTX: starting gpgpu_ptx_sim_memcpy_symbol with hostVar 0x0x61c484
GPGPU-Sim PTX: gpgpu_ptx_sim_memcpy_symbol: Found PTX symbol w/ hostVar=0x61c484
GPGPU-Sim PTX: gpgpu_ptx_sim_memcpy_symbol: copying const memory 4 bytes  to  symbol size_xy_c+0 @0x18c ...
GPGPU-Sim PTX: cudaMemcpyToSymbol: symbol = 0x61c488
GPGPU-Sim PTX: starting gpgpu_ptx_sim_memcpy_symbol with hostVar 0x0x61c488
GPGPU-Sim PTX: gpgpu_ptx_sim_memcpy_symbol: Found PTX symbol w/ hostVar=0x61c488
GPGPU-Sim PTX: gpgpu_ptx_sim_memcpy_symbol: copying const memory 4 bytes  to  symbol _1overCutoff2_c+0 @0x190 ...
event update
GPGPU-Sim: synchronize waiting for inactive GPU simulation
GPGPU-Sim API: Stream Manager State
GPGPU-Sim: detected inactive GPU simulation thread
GPGPU-Sim: synchronize waiting for inactive GPU simulation
GPGPU-Sim API: Stream Manager State
GPGPU-Sim: detected inactive GPU simulation thread
GPGPU-Sim: synchronize waiting for inactive GPU simulation
GPGPU-Sim API: Stream Manager State
GPGPU-Sim: detected inactive GPU simulation thread
GPGPU-Sim PTX: Setting up arguments for 4 bytes starting at 0x7fff879d435c..
GPGPU-Sim PTX: Setting up arguments for 4 bytes starting at 0x7fff879d4358..
GPGPU-Sim PTX: Setting up arguments for 8 bytes starting at 0x7fff879d4350..
GPGPU-Sim PTX: Setting up arguments for 8 bytes starting at 0x7fff879d4348..
GPGPU-Sim PTX: Setting up arguments for 8 bytes starting at 0x7fff879d4340..

GPGPU-Sim PTX: cudaLaunch for 0x0x408e4c (mode=performance simulation) on stream 0
GPGPU-Sim PTX: finding reconvergence points for '_Z14splitSort_nvmgiiPjS_S_'...
GPGPU-Sim PTX: Finding dominators for '_Z14splitSort_nvmgiiPjS_S_'...
GPGPU-Sim PTX: Finding immediate dominators for '_Z14splitSort_nvmgiiPjS_S_'...
GPGPU-Sim PTX: Finding postdominators for '_Z14splitSort_nvmgiiPjS_S_'...
GPGPU-Sim PTX: Finding immediate postdominators for '_Z14splitSort_nvmgiiPjS_S_'...
GPGPU-Sim PTX: pre-decoding instructions for '_Z14splitSort_nvmgiiPjS_S_'...
GPGPU-Sim PTX: reconvergence points for _Z14splitSort_nvmgiiPjS_S_...
GPGPU-Sim PTX:  1 (potential) branch divergence @  PC=0xd348 (mri-gridding.4.sm_70.ptx:5487) @%p2 bra BB17_2;
GPGPU-Sim PTX:    immediate post dominator      @  PC=0xd378 (mri-gridding.4.sm_70.ptx:5496) shl.b32 %r84, %r3, 2;
GPGPU-Sim PTX:  2 (potential) branch divergence @  PC=0xd398 (mri-gridding.4.sm_70.ptx:5500) @%p3 bra BB17_4;
GPGPU-Sim PTX:    immediate post dominator      @  PC=0xd3b0 (mri-gridding.4.sm_70.ptx:5506) bar.sync 0;
GPGPU-Sim PTX:  3 (potential) branch divergence @  PC=0xd850 (mri-gridding.4.sm_70.ptx:5656) @%p4 bra BB17_9;
GPGPU-Sim PTX:    immediate post dominator      @  PC=0xd940 (mri-gridding.4.sm_70.ptx:5693) setp.ne.s32%p7, %r3, 0;
GPGPU-Sim PTX:  4 (potential) branch divergence @  PC=0xd868 (mri-gridding.4.sm_70.ptx:5661) @%p5 bra BB17_8;
GPGPU-Sim PTX:    immediate post dominator      @  PC=0xd920 (mri-gridding.4.sm_70.ptx:5687) shl.b32 %r346, %r346, 1;
GPGPU-Sim PTX:  5 (potential) branch divergence @  PC=0xd938 (mri-gridding.4.sm_70.ptx:5690) @%p6 bra BB17_6;
GPGPU-Sim PTX:    immediate post dominator      @  PC=0xd940 (mri-gridding.4.sm_70.ptx:5693) setp.ne.s32%p7, %r3, 0;
GPGPU-Sim PTX:  6 (potential) branch divergence @  PC=0xd948 (mri-gridding.4.sm_70.ptx:5694) @%p7 bra BB17_11;
GPGPU-Sim PTX:    immediate post dominator      @  PC=0xd980 (mri-gridding.4.sm_70.ptx:5704) mov.u32 %r347, %r88;
GPGPU-Sim PTX:  7 (potential) branch divergence @  PC=0xd988 (mri-gridding.4.sm_70.ptx:5705) @%p4 bra BB17_15;
GPGPU-Sim PTX:    immediate post dominator      @  PC=0xda88 (mri-gridding.4.sm_70.ptx:5744) bar.sync 0;
GPGPU-Sim PTX:  8 (potential) branch divergence @  PC=0xd9a8 (mri-gridding.4.sm_70.ptx:5711) @%p9 bra BB17_14;
GPGPU-Sim PTX:    immediate post dominator      @  PC=0xda70 (mri-gridding.4.sm_70.ptx:5739) shl.b32 %r347, %r347, 1;
GPGPU-Sim PTX:  9 (potential) branch divergence @  PC=0xda80 (mri-gridding.4.sm_70.ptx:5741) @%p10 bra BB17_12;
GPGPU-Sim PTX:    immediate post dominator      @  PC=0xda88 (mri-gridding.4.sm_70.ptx:5744) bar.sync 0;
GPGPU-Sim PTX: 10 (potential) branch divergence @  PC=0xdc08 (mri-gridding.4.sm_70.ptx:5792) @%p15 bra BB17_5;
GPGPU-Sim PTX:    immediate post dominator      @  PC=0xdc10 (mri-gridding.4.sm_70.ptx:5794) @%p2 bra BB17_18;
GPGPU-Sim PTX: 11 (potential) branch divergence @  PC=0xdc10 (mri-gridding.4.sm_70.ptx:5794) @%p2 bra BB17_18;
GPGPU-Sim PTX:    immediate post dominator      @  PC=0xdd70 (mri-gridding.4.sm_70.ptx:5857) @%p3 bra BB17_20;
GPGPU-Sim PTX: 12 (potential) branch divergence @  PC=0xdd70 (mri-gridding.4.sm_70.ptx:5857) @%p3 bra BB17_20;
GPGPU-Sim PTX:    immediate post dominator      @  PC=0xddc0 (mri-gridding.4.sm_70.ptx:5873) membar.gl;
GPGPU-Sim PTX: 13 (potential) branch divergence @  PC=0xde10 (mri-gridding.4.sm_70.ptx:5884) @%p18 bra BB17_22;
GPGPU-Sim PTX:    immediate post dominator      @  PC=0xde80 (mri-gridding.4.sm_70.ptx:5905) @%p2 bra BB17_24;
GPGPU-Sim PTX: 14 (potential) branch divergence @  PC=0xde80 (mri-gridding.4.sm_70.ptx:5905) @%p2 bra BB17_24;
GPGPU-Sim PTX:    immediate post dominator      @  PC=0xdf48 (mri-gridding.4.sm_70.ptx:5949) @%p3 bra BB17_26;
GPGPU-Sim PTX: 15 (potential) branch divergence @  PC=0xdf48 (mri-gridding.4.sm_70.ptx:5949) @%p3 bra BB17_26;
GPGPU-Sim PTX:    immediate post dominator      @  PC=0xdf88 (mri-gridding.4.sm_70.ptx:5964) setp.eq.s32%p1, %r67, %r68;
GPGPU-Sim PTX: 16 (potential) branch divergence @  PC=0xdfa0 (mri-gridding.4.sm_70.ptx:5969) @!%p1 bra BB17_28;
GPGPU-Sim PTX:    immediate post dominator      @  PC=0xe018 (mri-gridding.4.sm_70.ptx:5992) ret;
GPGPU-Sim PTX: 17 (potential) branch divergence @  PC=0xdfa8 (mri-gridding.4.sm_70.ptx:5970) bra.uni BB17_27;
GPGPU-Sim PTX:    immediate post dominator      @  PC=0xdfb0 (mri-gridding.4.sm_70.ptx:5973) mov.u32 %r314, %ctaid.y;
GPGPU-Sim PTX: ... end of reconvergence points for _Z14splitSort_nvmgiiPjS_S_
GPGPU-Sim PTX: ... done pre-decoding instructions for '_Z14splitSort_nvmgiiPjS_S_'.
GPGPU-Sim PTX: pushing kernel '_Z14splitSort_nvmgiiPjS_S_' to stream 0, gridDim= (2594,1,1) blockDim = (256,1,1) 
GPGPU-Sim uArch: Shader 0 bind to kernel 1 '_Z14splitSort_nvmgiiPjS_S_'
GPGPU-Sim uArch: CTA/core = 5, limited by: regs
GPGPU-Sim: Reconfigure L1 cache to 96KB
GPGPU-Sim uArch: Shader 1 bind to kernel 1 '_Z14splitSort_nvmgiiPjS_S_'
GPGPU-Sim uArch: Shader 2 bind to kernel 1 '_Z14splitSort_nvmgiiPjS_S_'
GPGPU-Sim uArch: Shader 3 bind to kernel 1 '_Z14splitSort_nvmgiiPjS_S_'
GPGPU-Sim uArch: Shader 4 bind to kernel 1 '_Z14splitSort_nvmgiiPjS_S_'
GPGPU-Sim uArch: Shader 5 bind to kernel 1 '_Z14splitSort_nvmgiiPjS_S_'
GPGPU-Sim uArch: Shader 6 bind to kernel 1 '_Z14splitSort_nvmgiiPjS_S_'
GPGPU-Sim uArch: Shader 7 bind to kernel 1 '_Z14splitSort_nvmgiiPjS_S_'
GPGPU-Sim uArch: Shader 8 bind to kernel 1 '_Z14splitSort_nvmgiiPjS_S_'
GPGPU-Sim uArch: Shader 9 bind to kernel 1 '_Z14splitSort_nvmgiiPjS_S_'
GPGPU-Sim uArch: Shader 10 bind to kernel 1 '_Z14splitSort_nvmgiiPjS_S_'
GPGPU-Sim uArch: Shader 11 bind to kernel 1 '_Z14splitSort_nvmgiiPjS_S_'
GPGPU-Sim uArch: Shader 12 bind to kernel 1 '_Z14splitSort_nvmgiiPjS_S_'
GPGPU-Sim uArch: Shader 13 bind to kernel 1 '_Z14splitSort_nvmgiiPjS_S_'
GPGPU-Sim uArch: Shader 14 bind to kernel 1 '_Z14splitSort_nvmgiiPjS_S_'
GPGPU-Sim uArch: Shader 15 bind to kernel 1 '_Z14splitSort_nvmgiiPjS_S_'
GPGPU-Sim uArch: Shader 16 bind to kernel 1 '_Z14splitSort_nvmgiiPjS_S_'
GPGPU-Sim uArch: Shader 17 bind to kernel 1 '_Z14splitSort_nvmgiiPjS_S_'
GPGPU-Sim uArch: Shader 18 bind to kernel 1 '_Z14splitSort_nvmgiiPjS_S_'
GPGPU-Sim uArch: Shader 19 bind to kernel 1 '_Z14splitSort_nvmgiiPjS_S_'
GPGPU-Sim uArch: Shader 20 bind to kernel 1 '_Z14splitSort_nvmgiiPjS_S_'
GPGPU-Sim uArch: Shader 21 bind to kernel 1 '_Z14splitSort_nvmgiiPjS_S_'
GPGPU-Sim uArch: Shader 22 bind to kernel 1 '_Z14splitSort_nvmgiiPjS_S_'
GPGPU-Sim uArch: Shader 23 bind to kernel 1 '_Z14splitSort_nvmgiiPjS_S_'
GPGPU-Sim uArch: Shader 24 bind to kernel 1 '_Z14splitSort_nvmgiiPjS_S_'
GPGPU-Sim uArch: Shader 25 bind to kernel 1 '_Z14splitSort_nvmgiiPjS_S_'
GPGPU-Sim uArch: Shader 26 bind to kernel 1 '_Z14splitSort_nvmgiiPjS_S_'
GPGPU-Sim uArch: Shader 27 bind to kernel 1 '_Z14splitSort_nvmgiiPjS_S_'
GPGPU-Sim uArch: Shader 28 bind to kernel 1 '_Z14splitSort_nvmgiiPjS_S_'
GPGPU-Sim uArch: Shader 29 bind to kernel 1 '_Z14splitSort_nvmgiiPjS_S_'
GPGPU-Sim uArch: Shader 30 bind to kernel 1 '_Z14splitSort_nvmgiiPjS_S_'
GPGPU-Sim uArch: Shader 31 bind to kernel 1 '_Z14splitSort_nvmgiiPjS_S_'
GPGPU-Sim uArch: Shader 32 bind to kernel 1 '_Z14splitSort_nvmgiiPjS_S_'
GPGPU-Sim uArch: Shader 33 bind to kernel 1 '_Z14splitSort_nvmgiiPjS_S_'
GPGPU-Sim uArch: Shader 34 bind to kernel 1 '_Z14splitSort_nvmgiiPjS_S_'
GPGPU-Sim uArch: Shader 35 bind to kernel 1 '_Z14splitSort_nvmgiiPjS_S_'
GPGPU-Sim uArch: Shader 36 bind to kernel 1 '_Z14splitSort_nvmgiiPjS_S_'
GPGPU-Sim uArch: Shader 37 bind to kernel 1 '_Z14splitSort_nvmgiiPjS_S_'
GPGPU-Sim uArch: Shader 38 bind to kernel 1 '_Z14splitSort_nvmgiiPjS_S_'
GPGPU-Sim uArch: Shader 39 bind to kernel 1 '_Z14splitSort_nvmgiiPjS_S_'
GPGPU-Sim uArch: Shader 40 bind to kernel 1 '_Z14splitSort_nvmgiiPjS_S_'
GPGPU-Sim uArch: Shader 41 bind to kernel 1 '_Z14splitSort_nvmgiiPjS_S_'
GPGPU-Sim uArch: Shader 42 bind to kernel 1 '_Z14splitSort_nvmgiiPjS_S_'
GPGPU-Sim uArch: Shader 43 bind to kernel 1 '_Z14splitSort_nvmgiiPjS_S_'
GPGPU-Sim uArch: Shader 44 bind to kernel 1 '_Z14splitSort_nvmgiiPjS_S_'
GPGPU-Sim uArch: Shader 45 bind to kernel 1 '_Z14splitSort_nvmgiiPjS_S_'
GPGPU-Sim uArch: Shader 46 bind to kernel 1 '_Z14splitSort_nvmgiiPjS_S_'
GPGPU-Sim uArch: Shader 47 bind to kernel 1 '_Z14splitSort_nvmgiiPjS_S_'
GPGPU-Sim uArch: Shader 48 bind to kernel 1 '_Z14splitSort_nvmgiiPjS_S_'
GPGPU-Sim uArch: Shader 49 bind to kernel 1 '_Z14splitSort_nvmgiiPjS_S_'
GPGPU-Sim uArch: Shader 50 bind to kernel 1 '_Z14splitSort_nvmgiiPjS_S_'
GPGPU-Sim uArch: Shader 51 bind to kernel 1 '_Z14splitSort_nvmgiiPjS_S_'
GPGPU-Sim uArch: Shader 52 bind to kernel 1 '_Z14splitSort_nvmgiiPjS_S_'
GPGPU-Sim uArch: Shader 53 bind to kernel 1 '_Z14splitSort_nvmgiiPjS_S_'
GPGPU-Sim uArch: Shader 54 bind to kernel 1 '_Z14splitSort_nvmgiiPjS_S_'
GPGPU-Sim uArch: Shader 55 bind to kernel 1 '_Z14splitSort_nvmgiiPjS_S_'
GPGPU-Sim uArch: Shader 56 bind to kernel 1 '_Z14splitSort_nvmgiiPjS_S_'
GPGPU-Sim uArch: Shader 57 bind to kernel 1 '_Z14splitSort_nvmgiiPjS_S_'
GPGPU-Sim uArch: Shader 58 bind to kernel 1 '_Z14splitSort_nvmgiiPjS_S_'
GPGPU-Sim uArch: Shader 59 bind to kernel 1 '_Z14splitSort_nvmgiiPjS_S_'
GPGPU-Sim uArch: Shader 60 bind to kernel 1 '_Z14splitSort_nvmgiiPjS_S_'
GPGPU-Sim uArch: Shader 61 bind to kernel 1 '_Z14splitSort_nvmgiiPjS_S_'
GPGPU-Sim uArch: Shader 62 bind to kernel 1 '_Z14splitSort_nvmgiiPjS_S_'
GPGPU-Sim uArch: Shader 63 bind to kernel 1 '_Z14splitSort_nvmgiiPjS_S_'
GPGPU-Sim uArch: Shader 64 bind to kernel 1 '_Z14splitSort_nvmgiiPjS_S_'
GPGPU-Sim uArch: Shader 65 bind to kernel 1 '_Z14splitSort_nvmgiiPjS_S_'
GPGPU-Sim uArch: Shader 66 bind to kernel 1 '_Z14splitSort_nvmgiiPjS_S_'
GPGPU-Sim uArch: Shader 67 bind to kernel 1 '_Z14splitSort_nvmgiiPjS_S_'
GPGPU-Sim uArch: Shader 68 bind to kernel 1 '_Z14splitSort_nvmgiiPjS_S_'
GPGPU-Sim uArch: Shader 69 bind to kernel 1 '_Z14splitSort_nvmgiiPjS_S_'
GPGPU-Sim uArch: Shader 70 bind to kernel 1 '_Z14splitSort_nvmgiiPjS_S_'
GPGPU-Sim uArch: Shader 71 bind to kernel 1 '_Z14splitSort_nvmgiiPjS_S_'
GPGPU-Sim uArch: Shader 72 bind to kernel 1 '_Z14splitSort_nvmgiiPjS_S_'
GPGPU-Sim uArch: Shader 73 bind to kernel 1 '_Z14splitSort_nvmgiiPjS_S_'
GPGPU-Sim uArch: Shader 74 bind to kernel 1 '_Z14splitSort_nvmgiiPjS_S_'
GPGPU-Sim uArch: Shader 75 bind to kernel 1 '_Z14splitSort_nvmgiiPjS_S_'
GPGPU-Sim uArch: Shader 76 bind to kernel 1 '_Z14splitSort_nvmgiiPjS_S_'
GPGPU-Sim uArch: Shader 77 bind to kernel 1 '_Z14splitSort_nvmgiiPjS_S_'
GPGPU-Sim uArch: Shader 78 bind to kernel 1 '_Z14splitSort_nvmgiiPjS_S_'
GPGPU-Sim uArch: Shader 79 bind to kernel 1 '_Z14splitSort_nvmgiiPjS_S_'
Destroy streams for kernel 1: size 0
kernel_name = _Z14splitSort_nvmgiiPjS_S_ 
kernel_launch_uid = 1 
gpu_sim_cycle = 413589
gpu_sim_insn = 1001021260
gpu_ipc =    2420.3286
gpu_tot_sim_cycle = 413589
gpu_tot_sim_insn = 1001021260
gpu_tot_ipc =    2420.3286
gpu_tot_issued_cta = 2594
gpu_occupancy = 59.2573% 
gpu_tot_occupancy = 59.2573% 
max_total_param_size = 0
gpu_stall_dramfull = 3029231
gpu_stall_icnt2sh    = 0
partiton_level_parallism =      17.1948
partiton_level_parallism_total  =      17.1948
partiton_level_parallism_util =      18.8598
partiton_level_parallism_util_total  =      18.8598
L2_BW  =     622.8644 GB/Sec
L2_BW_total  =     622.8644 GB/Sec
gpu_total_sim_rate=226526
############## bottleneck_stats #############
cycles: core 413589, icnt 413589, l2 413589, dram 310557
gpu_ipc	2420.329
gpu_tot_issued_cta = 2594, average cycles = 159
n_dram_writes	 0, n_dram_reads	 0
n_GLOBAL_ACC_R	 1228318 
n_LOCAL_ACC_R	 0 
n_CONST_ACC_R	 0 
n_TEXTURE_ACC_R	 0 
n_GLOBAL_ACC_W	 2695192 
n_LOCAL_ACC_W	 0 
n_L1_WRBK_ACC	 0 
n_L2_WRBK_ACC	 143867 
n_L1_WR_ALLOC_R	 0 
n_L2_WR_ALLOC_R	 0 

n_sm	 80, n_schedulers	 4
scheduler util	0.258	80
L1D data util	0.907	80	0.929	69
L1D tag util	0.310	80	0.320	63
L2 data util	0.313	64	0.315	39
L2 tag util	0.271	64	0.274	51
n_l2_access	 7163821
icnt s2m util	0.000	0	0.000	51	flits per packet: -nan
icnt m2s util	0.000	0	0.000	51	flits per packet: -nan
sum=0
n_mem	 32
dram util	0.453	32	0.453	23

latency_l1_hit:	69121269, num_l1_reqs:	1676897
L1 hit latency:	41
latency_l2_hit:	90415677, num_l2_reqs:	3146756
L2 hit latency:	1393
latency_dram:	-1119184773, num_dram_reqs:	3937761
DRAM latency:	806

n_reg	65536, n_smem	98304, n_thread	2048, n_tb	32
reg file	0.859
smem size	0.228
thread slot	0.625
TB slot    	0.156
L1I tag util	0.575	80	0.585	1

n_mem_pipe	1, n_sp_pipe	4, n_sfu_pipe	4
mem pipe util	0.140	80	0.143	1
sp pipe util	0.000	0	0.000	1
sfu pipe util	0.000	0	0.000	1
ldst mem cycle	0.000	0	0.000	1

smem port	0.568	80

n_reg_bank	16
reg port	0.133	16	0.201	2
L1D tag util	0.310	80	0.320	63
L1D fill util	0.052	80	0.054	69
n_l1d_mshr	4096
L1D mshr util	0.017	80
n_l1d_missq	16
L1D missq util	0.067	80
L1D hit rate	0.163
L1D miss rate	0.690
L1D rsfail rate	0.147
L2 tag util	0.271	64	0.274	51
L2 fill util	0.046	64	0.047	40
n_l2_mshr	192
n_l2_missq	32
L2 mshr util	0.181	64	0.185	36
L2 missq util	0.006	64	0.006	57
L2 hit rate	0.443
L2 miss rate	0.550
L2 rsfail rate	0.007

dram activity	0.799	32	0.806	4

load trans eff	0.248
load trans sz	32.000
load_useful_bytes 26725136, load_transaction_bytes 107564608, icnt_m2s_bytes 0
n_gmem_load_insns 210094, n_gmem_load_accesses 3361394
n_smem_access_insn 3937692, n_smem_accesses 18796124

tmp_counter/12	0.276

run 0.042, fetch 0.001, sync 0.514, control 0.003, data 0.426, struct 0.014
############ end_bottleneck_stats #############

========= Core cache stats =========
L1I_cache:
	L1I_total_cache_accesses = 0
	L1I_total_cache_misses = 0
	L1I_total_cache_pending_hits = 0
	L1I_total_cache_reservation_fails = 0
L1D_cache:
	L1D_cache_core[0]: Access = 108096, Miss = 87569, Miss_rate = 0.810, Pending_hits = 0, Reservation_fails = 21792
	L1D_cache_core[1]: Access = 111474, Miss = 90649, Miss_rate = 0.813, Pending_hits = 0, Reservation_fails = 15786
	L1D_cache_core[2]: Access = 111474, Miss = 90007, Miss_rate = 0.807, Pending_hits = 0, Reservation_fails = 14635
	L1D_cache_core[3]: Access = 111474, Miss = 89969, Miss_rate = 0.807, Pending_hits = 0, Reservation_fails = 18179
	L1D_cache_core[4]: Access = 108096, Miss = 87176, Miss_rate = 0.806, Pending_hits = 0, Reservation_fails = 22217
	L1D_cache_core[5]: Access = 108096, Miss = 87215, Miss_rate = 0.807, Pending_hits = 0, Reservation_fails = 19086
	L1D_cache_core[6]: Access = 111474, Miss = 90689, Miss_rate = 0.814, Pending_hits = 0, Reservation_fails = 20242
	L1D_cache_core[7]: Access = 111474, Miss = 90308, Miss_rate = 0.810, Pending_hits = 0, Reservation_fails = 17721
	L1D_cache_core[8]: Access = 108096, Miss = 86815, Miss_rate = 0.803, Pending_hits = 0, Reservation_fails = 21023
	L1D_cache_core[9]: Access = 108096, Miss = 87112, Miss_rate = 0.806, Pending_hits = 0, Reservation_fails = 18154
	L1D_cache_core[10]: Access = 111474, Miss = 90422, Miss_rate = 0.811, Pending_hits = 0, Reservation_fails = 17495
	L1D_cache_core[11]: Access = 108096, Miss = 87454, Miss_rate = 0.809, Pending_hits = 0, Reservation_fails = 20566
	L1D_cache_core[12]: Access = 108096, Miss = 87651, Miss_rate = 0.811, Pending_hits = 0, Reservation_fails = 21698
	L1D_cache_core[13]: Access = 108096, Miss = 87670, Miss_rate = 0.811, Pending_hits = 0, Reservation_fails = 19991
	L1D_cache_core[14]: Access = 111474, Miss = 90036, Miss_rate = 0.808, Pending_hits = 0, Reservation_fails = 16547
	L1D_cache_core[15]: Access = 111474, Miss = 90531, Miss_rate = 0.812, Pending_hits = 0, Reservation_fails = 17958
	L1D_cache_core[16]: Access = 108096, Miss = 87012, Miss_rate = 0.805, Pending_hits = 0, Reservation_fails = 20678
	L1D_cache_core[17]: Access = 108096, Miss = 87418, Miss_rate = 0.809, Pending_hits = 0, Reservation_fails = 18900
	L1D_cache_core[18]: Access = 111474, Miss = 89713, Miss_rate = 0.805, Pending_hits = 0, Reservation_fails = 14333
	L1D_cache_core[19]: Access = 111474, Miss = 90457, Miss_rate = 0.811, Pending_hits = 0, Reservation_fails = 17514
	L1D_cache_core[20]: Access = 108096, Miss = 86884, Miss_rate = 0.804, Pending_hits = 0, Reservation_fails = 18876
	L1D_cache_core[21]: Access = 108096, Miss = 87288, Miss_rate = 0.808, Pending_hits = 0, Reservation_fails = 20562
	L1D_cache_core[22]: Access = 108096, Miss = 87217, Miss_rate = 0.807, Pending_hits = 0, Reservation_fails = 22081
	L1D_cache_core[23]: Access = 108096, Miss = 86903, Miss_rate = 0.804, Pending_hits = 0, Reservation_fails = 18326
	L1D_cache_core[24]: Access = 111474, Miss = 89810, Miss_rate = 0.806, Pending_hits = 0, Reservation_fails = 16453
	L1D_cache_core[25]: Access = 108096, Miss = 87850, Miss_rate = 0.813, Pending_hits = 0, Reservation_fails = 19482
	L1D_cache_core[26]: Access = 108096, Miss = 87736, Miss_rate = 0.812, Pending_hits = 0, Reservation_fails = 16500
	L1D_cache_core[27]: Access = 108096, Miss = 87365, Miss_rate = 0.808, Pending_hits = 0, Reservation_fails = 18431
	L1D_cache_core[28]: Access = 111474, Miss = 90692, Miss_rate = 0.814, Pending_hits = 0, Reservation_fails = 18873
	L1D_cache_core[29]: Access = 108096, Miss = 87387, Miss_rate = 0.808, Pending_hits = 0, Reservation_fails = 17918
	L1D_cache_core[30]: Access = 110356, Miss = 89281, Miss_rate = 0.809, Pending_hits = 0, Reservation_fails = 19786
	L1D_cache_core[31]: Access = 108096, Miss = 87654, Miss_rate = 0.811, Pending_hits = 0, Reservation_fails = 21865
	L1D_cache_core[32]: Access = 108096, Miss = 87488, Miss_rate = 0.809, Pending_hits = 0, Reservation_fails = 19858
	L1D_cache_core[33]: Access = 111474, Miss = 90713, Miss_rate = 0.814, Pending_hits = 0, Reservation_fails = 18419
	L1D_cache_core[34]: Access = 111474, Miss = 90022, Miss_rate = 0.808, Pending_hits = 0, Reservation_fails = 16768
	L1D_cache_core[35]: Access = 108096, Miss = 85988, Miss_rate = 0.795, Pending_hits = 0, Reservation_fails = 23543
	L1D_cache_core[36]: Access = 108096, Miss = 87292, Miss_rate = 0.808, Pending_hits = 0, Reservation_fails = 19443
	L1D_cache_core[37]: Access = 111474, Miss = 90421, Miss_rate = 0.811, Pending_hits = 0, Reservation_fails = 17457
	L1D_cache_core[38]: Access = 111474, Miss = 90343, Miss_rate = 0.810, Pending_hits = 0, Reservation_fails = 15942
	L1D_cache_core[39]: Access = 111474, Miss = 90052, Miss_rate = 0.808, Pending_hits = 0, Reservation_fails = 16780
	L1D_cache_core[40]: Access = 108096, Miss = 87524, Miss_rate = 0.810, Pending_hits = 0, Reservation_fails = 16819
	L1D_cache_core[41]: Access = 111474, Miss = 89682, Miss_rate = 0.805, Pending_hits = 0, Reservation_fails = 14527
	L1D_cache_core[42]: Access = 108096, Miss = 88446, Miss_rate = 0.818, Pending_hits = 0, Reservation_fails = 21668
	L1D_cache_core[43]: Access = 108096, Miss = 87205, Miss_rate = 0.807, Pending_hits = 0, Reservation_fails = 20506
	L1D_cache_core[44]: Access = 111474, Miss = 90708, Miss_rate = 0.814, Pending_hits = 0, Reservation_fails = 18914
	L1D_cache_core[45]: Access = 111474, Miss = 90605, Miss_rate = 0.813, Pending_hits = 0, Reservation_fails = 17225
	L1D_cache_core[46]: Access = 111474, Miss = 90247, Miss_rate = 0.810, Pending_hits = 0, Reservation_fails = 16191
	L1D_cache_core[47]: Access = 108096, Miss = 86827, Miss_rate = 0.803, Pending_hits = 0, Reservation_fails = 20018
	L1D_cache_core[48]: Access = 108096, Miss = 87580, Miss_rate = 0.810, Pending_hits = 0, Reservation_fails = 22570
	L1D_cache_core[49]: Access = 108096, Miss = 86875, Miss_rate = 0.804, Pending_hits = 0, Reservation_fails = 20509
	L1D_cache_core[50]: Access = 108096, Miss = 86864, Miss_rate = 0.804, Pending_hits = 0, Reservation_fails = 22773
	L1D_cache_core[51]: Access = 108096, Miss = 86767, Miss_rate = 0.803, Pending_hits = 0, Reservation_fails = 23352
	L1D_cache_core[52]: Access = 108096, Miss = 86416, Miss_rate = 0.799, Pending_hits = 0, Reservation_fails = 20337
	L1D_cache_core[53]: Access = 108096, Miss = 87240, Miss_rate = 0.807, Pending_hits = 0, Reservation_fails = 19520
	L1D_cache_core[54]: Access = 111474, Miss = 90643, Miss_rate = 0.813, Pending_hits = 0, Reservation_fails = 16619
	L1D_cache_core[55]: Access = 108096, Miss = 87403, Miss_rate = 0.809, Pending_hits = 0, Reservation_fails = 21387
	L1D_cache_core[56]: Access = 108096, Miss = 87091, Miss_rate = 0.806, Pending_hits = 0, Reservation_fails = 19889
	L1D_cache_core[57]: Access = 111474, Miss = 90207, Miss_rate = 0.809, Pending_hits = 0, Reservation_fails = 16987
	L1D_cache_core[58]: Access = 111474, Miss = 89893, Miss_rate = 0.806, Pending_hits = 0, Reservation_fails = 18109
	L1D_cache_core[59]: Access = 108096, Miss = 87209, Miss_rate = 0.807, Pending_hits = 0, Reservation_fails = 18696
	L1D_cache_core[60]: Access = 108096, Miss = 87560, Miss_rate = 0.810, Pending_hits = 0, Reservation_fails = 19405
	L1D_cache_core[61]: Access = 108096, Miss = 87094, Miss_rate = 0.806, Pending_hits = 0, Reservation_fails = 15976
	L1D_cache_core[62]: Access = 111474, Miss = 90313, Miss_rate = 0.810, Pending_hits = 0, Reservation_fails = 13969
	L1D_cache_core[63]: Access = 111474, Miss = 90556, Miss_rate = 0.812, Pending_hits = 0, Reservation_fails = 20977
	L1D_cache_core[64]: Access = 108096, Miss = 87347, Miss_rate = 0.808, Pending_hits = 0, Reservation_fails = 21998
	L1D_cache_core[65]: Access = 111474, Miss = 90746, Miss_rate = 0.814, Pending_hits = 0, Reservation_fails = 16954
	L1D_cache_core[66]: Access = 108096, Miss = 87301, Miss_rate = 0.808, Pending_hits = 0, Reservation_fails = 19951
	L1D_cache_core[67]: Access = 108096, Miss = 87459, Miss_rate = 0.809, Pending_hits = 0, Reservation_fails = 20457
	L1D_cache_core[68]: Access = 111474, Miss = 90001, Miss_rate = 0.807, Pending_hits = 0, Reservation_fails = 19002
	L1D_cache_core[69]: Access = 111474, Miss = 90906, Miss_rate = 0.815, Pending_hits = 0, Reservation_fails = 14905
	L1D_cache_core[70]: Access = 108096, Miss = 88199, Miss_rate = 0.816, Pending_hits = 0, Reservation_fails = 18948
	L1D_cache_core[71]: Access = 108096, Miss = 87229, Miss_rate = 0.807, Pending_hits = 0, Reservation_fails = 20140
	L1D_cache_core[72]: Access = 108096, Miss = 87300, Miss_rate = 0.808, Pending_hits = 0, Reservation_fails = 22925
	L1D_cache_core[73]: Access = 111474, Miss = 90152, Miss_rate = 0.809, Pending_hits = 0, Reservation_fails = 16478
	L1D_cache_core[74]: Access = 111474, Miss = 90306, Miss_rate = 0.810, Pending_hits = 0, Reservation_fails = 20732
	L1D_cache_core[75]: Access = 111474, Miss = 90047, Miss_rate = 0.808, Pending_hits = 0, Reservation_fails = 14526
	L1D_cache_core[76]: Access = 111474, Miss = 89214, Miss_rate = 0.800, Pending_hits = 0, Reservation_fails = 16075
[...]

------------------------------------------------------------------------

Row_Buffer_Locality = 0.968598
Row_Buffer_Locality_read = 0.944105
Row_Buffer_Locality_write = 0.977016
Bank_Level_Parallism = 2.225834
Bank_Level_Parallism_Col = 2.019214
Bank_Level_Parallism_Ready = 1.214879
write_to_read_ratio_blp_rw_average = 0.663576
GrpLevelPara = 1.729579 

BW Util details:
bwutil = 0.284412 
total_CMD = 870012 
util_bw = 247442 
Wasted_Col = 199318 
Wasted_Row = 13622 
Idle = 409630 

BW Util Bottlenecks: 
RCDc_limit = 20747 
RCDWRc_limit = 19242 
WTRc_limit = 99446 
RTWc_limit = 81621 
CCDLc_limit = 168378 
rwq = 0 
CCDLc_limit_alone = 146345 
WTRc_limit_alone = 83782 
RTWc_limit_alone = 75252 

Commands details: 
total_CMD = 870012 
n_nop = 615190 
Read = 59272 
Write = 167232 
L2_Alloc = 0 
L2_WB = 20938 
n_act = 7277 
n_pre = 7261 
n_ref = 0 
n_req = 231740 
total_req = 247442 

Dual Bus Interface Util: 
issued_total_row = 14538 
issued_total_col = 247442 
Row_Bus_Util =  0.016710 
CoL_Bus_Util = 0.284412 
Either_Row_CoL_Bus_Util = 0.292895 
Issued_on_Two_Bus_Simul_Util = 0.008227 
issued_two_Eff = 0.028090 
queue_avg = 8.454228 


dram_util_bins: 0 0 0 0 0 0 0 0 0 0
dram_eff_bins: 0 0 0 0 0 0 0 0 0 0
mrqq: max=64 avg=8.45423
Memory Partition 29: 
Cache L2_bank_058:

Cache L2_bank_059:

In Dram Latency Queue (total = 0): 
DRAM[29]: 16 bks, busW=16 BL=2 CL=12, tRRD=3 tCCD=1, tRCD=12 tRAS=28 tRP=12 tRC=40
n_cmd=870012 n_nop=610090 n_act=7213 n_pre=7197 n_ref_event=0 n_req=236776 n_rd=59240 n_rd_L2_A=0 n_write=172304 n_wr_bk=20925 bw_util=0.2902
n_activity=534613 dram_eff=0.4722
bk0: 3648a 828368i bk1: 3648a 828130i bk2: 3696a 738392i bk3: 3652a 831767i bk4: 3712a 830682i bk5: 3712a 831098i bk6: 3632a 830424i bk7: 3648a 830138i bk8: 3744a 830656i bk9: 3720a 829259i bk10: 3712a 831778i bk11: 3716a 832169i bk12: 3736a 829894i bk13: 3736a 824821i bk14: 3760a 818023i bk15: 3768a 820162i 

------------------------------------------------------------------------

Row_Buffer_Locality = 0.969537
Row_Buffer_Locality_read = 0.944750
Row_Buffer_Locality_write = 0.977807
Bank_Level_Parallism = 2.093530
Bank_Level_Parallism_Col = 1.893562
Bank_Level_Parallism_Ready = 1.201054
write_to_read_ratio_blp_rw_average = 0.690262
GrpLevelPara = 1.634669 

BW Util details:
bwutil = 0.290190 
total_CMD = 870012 
util_bw = 252469 
Wasted_Col = 206030 
Wasted_Row = 14963 
Idle = 396550 

BW Util Bottlenecks: 
RCDc_limit = 20851 
RCDWRc_limit = 19098 
WTRc_limit = 81191 
RTWc_limit = 87845 
CCDLc_limit = 161642 
rwq = 0 
CCDLc_limit_alone = 143449 
WTRc_limit_alone = 69645 
RTWc_limit_alone = 81198 

Commands details: 
total_CMD = 870012 
n_nop = 610090 
Read = 59240 
Write = 172304 
L2_Alloc = 0 
L2_WB = 20925 
n_act = 7213 
n_pre = 7197 
n_ref = 0 
n_req = 236776 
total_req = 252469 

Dual Bus Interface Util: 
issued_total_row = 14410 
issued_total_col = 252469 
Row_Bus_Util =  0.016563 
CoL_Bus_Util = 0.290190 
Either_Row_CoL_Bus_Util = 0.298757 
Issued_on_Two_Bus_Simul_Util = 0.007996 
issued_two_Eff = 0.026766 
queue_avg = 6.423249 


dram_util_bins: 0 0 0 0 0 0 0 0 0 0
dram_eff_bins: 0 0 0 0 0 0 0 0 0 0
mrqq: max=64 avg=6.42325
Memory Partition 30: 
Cache L2_bank_060:

Cache L2_bank_061:

In Dram Latency Queue (total = 0): 
DRAM[30]: 16 bks, busW=16 BL=2 CL=12, tRRD=3 tCCD=1, tRCD=12 tRAS=28 tRP=12 tRC=40
n_cmd=870012 n_nop=614490 n_act=8026 n_pre=8010 n_ref_event=0 n_req=231758 n_rd=59264 n_rd_L2_A=0 n_write=167264 n_wr_bk=20920 bw_util=0.2844
n_activity=507157 dram_eff=0.4879
bk0: 3648a 828316i bk1: 3656a 827506i bk2: 3696a 741557i bk3: 3656a 829630i bk4: 3712a 829547i bk5: 3712a 827740i bk6: 3656a 829517i bk7: 3648a 829960i bk8: 3752a 829150i bk9: 3720a 828615i bk10: 3704a 828900i bk11: 3712a 826591i bk12: 3736a 828675i bk13: 3728a 824198i bk14: 3768a 818641i bk15: 3760a 818288i 

------------------------------------------------------------------------

Row_Buffer_Locality = 0.965369
Row_Buffer_Locality_read = 0.945228
Row_Buffer_Locality_write = 0.972289
Bank_Level_Parallism = 2.166975
Bank_Level_Parallism_Col = 1.938246
Bank_Level_Parallism_Ready = 1.246363
write_to_read_ratio_blp_rw_average = 0.695932
GrpLevelPara = 1.671775 

BW Util details:
bwutil = 0.284419 
total_CMD = 870012 
util_bw = 247448 
Wasted_Col = 200193 
Wasted_Row = 16194 
Idle = 406177 

BW Util Bottlenecks: 
RCDc_limit = 20306 
RCDWRc_limit = 22628 
WTRc_limit = 73567 
RTWc_limit = 92176 
CCDLc_limit = 154321 
rwq = 0 
CCDLc_limit_alone = 138631 
WTRc_limit_alone = 64278 
RTWc_limit_alone = 85775 

Commands details: 
total_CMD = 870012 
n_nop = 614490 
Read = 59264 
Write = 167264 
L2_Alloc = 0 
L2_WB = 20920 
n_act = 8026 
n_pre = 8010 
n_ref = 0 
n_req = 231758 
total_req = 247448 

Dual Bus Interface Util: 
issued_total_row = 16036 
issued_total_col = 247448 
Row_Bus_Util =  0.018432 
CoL_Bus_Util = 0.284419 
Either_Row_CoL_Bus_Util = 0.293699 
Issued_on_Two_Bus_Simul_Util = 0.009152 
issued_two_Eff = 0.031160 
queue_avg = 6.133709 


dram_util_bins: 0 0 0 0 0 0 0 0 0 0
dram_eff_bins: 0 0 0 0 0 0 0 0 0 0
mrqq: max=64 avg=6.13371
Memory Partition 31: 
Cache L2_bank_062:

Cache L2_bank_063:

In Dram Latency Queue (total = 0): 
DRAM[31]: 16 bks, busW=16 BL=2 CL=12, tRRD=3 tCCD=1, tRCD=12 tRAS=28 tRP=12 tRC=40
n_cmd=870012 n_nop=609063 n_act=8169 n_pre=8153 n_ref_event=0 n_req=236844 n_rd=59265 n_rd_L2_A=0 n_write=172352 n_wr_bk=20905 bw_util=0.2903
n_activity=533743 dram_eff=0.4731
bk0: 3652a 827736i bk1: 3656a 826321i bk2: 3696a 734829i bk3: 3656a 828872i bk4: 3712a 828025i bk5: 3712a 827088i bk6: 3656a 827346i bk7: 3648a 829292i bk8: 3752a 829428i bk9: 3712a 827778i bk10: 3704a 829528i bk11: 3712a 826482i bk12: 3737a 827938i bk13: 3728a 823664i bk14: 3776a 815196i bk15: 3756a 819038i 

------------------------------------------------------------------------

Row_Buffer_Locality = 0.965509
Row_Buffer_Locality_read = 0.944824
Row_Buffer_Locality_write = 0.972412
Bank_Level_Parallism = 2.155884
Bank_Level_Parallism_Col = 1.922729
Bank_Level_Parallism_Ready = 1.240831
write_to_read_ratio_blp_rw_average = 0.702247
GrpLevelPara = 1.650863 

BW Util details:
bwutil = 0.290251 
total_CMD = 870012 
util_bw = 252522 
Wasted_Col = 207970 
Wasted_Row = 16563 
Idle = 392957 

BW Util Bottlenecks: 
RCDc_limit = 20595 
RCDWRc_limit = 23234 
WTRc_limit = 74216 
RTWc_limit = 99079 
CCDLc_limit = 157232 
rwq = 0 
CCDLc_limit_alone = 140378 
WTRc_limit_alone = 63955 
RTWc_limit_alone = 92486 

Commands details: 
total_CMD = 870012 
n_nop = 609063 
Read = 59265 
Write = 172352 
L2_Alloc = 0 
L2_WB = 20905 
n_act = 8169 
n_pre = 8153 
n_ref = 0 
n_req = 236844 
total_req = 252522 

Dual Bus Interface Util: 
issued_total_row = 16322 
issued_total_col = 252522 
Row_Bus_Util =  0.018761 
CoL_Bus_Util = 0.290251 
Either_Row_CoL_Bus_Util = 0.299937 
Issued_on_Two_Bus_Simul_Util = 0.009075 
issued_two_Eff = 0.030255 
queue_avg = 6.357342 


dram_util_bins: 0 0 0 0 0 0 0 0 0 0
dram_eff_bins: 0 0 0 0 0 0 0 0 0 0
mrqq: max=64 avg=6.35734

========= L2 cache stats =========
L2_cache_bank[0]: Access = 220791, Miss = 71672, Miss_rate = 0.325, Pending_hits = 219, Reservation_fails = 11697
L2_cache_bank[1]: Access = 229000, Miss = 72040, Miss_rate = 0.315, Pending_hits = 228, Reservation_fails = 12237
L2_cache_bank[2]: Access = 234840, Miss = 71801, Miss_rate = 0.306, Pending_hits = 244, Reservation_fails = 10505
L2_cache_bank[3]: Access = 236002, Miss = 72084, Miss_rate = 0.305, Pending_hits = 209, Reservation_fails = 7777
L2_cache_bank[4]: Access = 380904, Miss = 215574, Miss_rate = 0.566, Pending_hits = 243, Reservation_fails = 9183
L2_cache_bank[5]: Access = 228923, Miss = 72060, Miss_rate = 0.315, Pending_hits = 214, Reservation_fails = 8354
L2_cache_bank[6]: Access = 395546, Miss = 238180, Miss_rate = 0.602, Pending_hits = 224, Reservation_fails = 13427
L2_cache_bank[7]: Access = 240345, Miss = 72025, Miss_rate = 0.300, Pending_hits = 218, Reservation_fails = 11858
L2_cache_bank[8]: Access = 412431, Miss = 248388, Miss_rate = 0.602, Pending_hits = 218, Reservation_fails = 11082
L2_cache_bank[9]: Access = 233828, Miss = 71988, Miss_rate = 0.308, Pending_hits = 246, Reservation_fails = 12423
L2_cache_bank[10]: Access = 395380, Miss = 238221, Miss_rate = 0.603, Pending_hits = 220, Reservation_fails = 5941
L2_cache_bank[11]: Access = 241046, Miss = 71980, Miss_rate = 0.299, Pending_hits = 213, Reservation_fails = 9296
L2_cache_bank[12]: Access = 412881, Miss = 248312, Miss_rate = 0.601, Pending_hits = 243, Reservation_fails = 11022
L2_cache_bank[13]: Access = 234039, Miss = 72008, Miss_rate = 0.308, Pending_hits = 226, Reservation_fails = 12928
L2_cache_bank[14]: Access = 395939, Miss = 238168, Miss_rate = 0.602, Pending_hits = 233, Reservation_fails = 10467
L2_cache_bank[15]: Access = 241844, Miss = 71996, Miss_rate = 0.298, Pending_hits = 220, Reservation_fails = 9391
L2_cache_bank[16]: Access = 419098, Miss = 248313, Miss_rate = 0.592, Pending_hits = 251, Reservation_fails = 9111
L2_cache_bank[17]: Access = 234628, Miss = 72028, Miss_rate = 0.307, Pending_hits = 219, Reservation_fails = 11385
L2_cache_bank[18]: Access = 402662, Miss = 238256, Miss_rate = 0.592, Pending_hits = 228, Reservation_fails = 12454
L2_cache_bank[19]: Access = 238322, Miss = 71984, Miss_rate = 0.302, Pending_hits = 234, Reservation_fails = 10176
L2_cache_bank[20]: Access = 417544, Miss = 248276, Miss_rate = 0.595, Pending_hits = 220, Reservation_fails = 10126
L2_cache_bank[21]: Access = 231235, Miss = 71833, Miss_rate = 0.311, Pending_hits = 266, Reservation_fails = 12012
L2_cache_bank[22]: Access = 400484, Miss = 238128, Miss_rate = 0.595, Pending_hits = 219, Reservation_fails = 6862
L2_cache_bank[23]: Access = 144430, Miss = 71664, Miss_rate = 0.496, Pending_hits = 259, Reservation_fails = 12455
L2_cache_bank[24]: Access = 416842, Miss = 248279, Miss_rate = 0.596, Pending_hits = 209, Reservation_fails = 9184
L2_cache_bank[25]: Access = 121864, Miss = 71740, Miss_rate = 0.589, Pending_hits = 209, Reservation_fails = 5778
L2_cache_bank[26]: Access = 399432, Miss = 238152, Miss_rate = 0.596, Pending_hits = 235, Reservation_fails = 5902
L2_cache_bank[27]: Access = 122000, Miss = 71744, Miss_rate = 0.588, Pending_hits = 219, Reservation_fails = 4245
L2_cache_bank[28]: Access = 413109, Miss = 248246, Miss_rate = 0.601, Pending_hits = 217, Reservation_fails = 9007
L2_cache_bank[29]: Access = 121750, Miss = 71705, Miss_rate = 0.589, Pending_hits = 243, Reservation_fails = 5590
L2_cache_bank[30]: Access = 395616, Miss = 238116, Miss_rate = 0.602, Pending_hits = 221, Reservation_fails = 5947
L2_cache_bank[31]: Access = 121490, Miss = 71696, Miss_rate = 0.590, Pending_hits = 247, Reservation_fails = 5301
L2_cache_bank[32]: Access = 320285, Miss = 248214, Miss_rate = 0.775, Pending_hits = 208, Reservation_fails = 6644
L2_cache_bank[33]: Access = 122375, Miss = 71681, Miss_rate = 0.586, Pending_hits = 196, Reservation_fails = 9799
L2_cache_bank[34]: Access = 288143, Miss = 238272, Miss_rate = 0.827, Pending_hits = 144, Reservation_fails = 3617
L2_cache_bank[35]: Access = 122018, Miss = 71880, Miss_rate = 0.589, Pending_hits = 170, Reservation_fails = 4280
L2_cache_bank[36]: Access = 155057, Miss = 105045, Miss_rate = 0.677, Pending_hits = 144, Reservation_fails = 1821
L2_cache_bank[37]: Access = 122364, Miss = 71836, Miss_rate = 0.587, Pending_hits = 150, Reservation_fails = 2485
L2_cache_bank[38]: Access = 122359, Miss = 72184, Miss_rate = 0.590, Pending_hits = 155, Reservation_fails = 5064
L2_cache_bank[39]: Access = 122578, Miss = 71768, Miss_rate = 0.585, Pending_hits = 169, Reservation_fails = 8075
L2_cache_bank[40]: Access = 122478, Miss = 72152, Miss_rate = 0.589, Pending_hits = 189, Reservation_fails = 5753
L2_cache_bank[41]: Access = 122571, Miss = 71845, Miss_rate = 0.586, Pending_hits = 149, Reservation_fails = 4999
L2_cache_bank[42]: Access = 122388, Miss = 72208, Miss_rate = 0.590, Pending_hits = 144, Reservation_fails = 3336
L2_cache_bank[43]: Access = 122336, Miss = 71852, Miss_rate = 0.587, Pending_hits = 156, Reservation_fails = 5393
L2_cache_bank[44]: Access = 122367, Miss = 72197, Miss_rate = 0.590, Pending_hits = 152, Reservation_fails = 5696
L2_cache_bank[45]: Access = 122200, Miss = 71826, Miss_rate = 0.588, Pending_hits = 187, Reservation_fails = 8142
L2_cache_bank[46]: Access = 122315, Miss = 72124, Miss_rate = 0.590, Pending_hits = 150, Reservation_fails = 6628
L2_cache_bank[47]: Access = 122302, Miss = 71852, Miss_rate = 0.587, Pending_hits = 174, Reservation_fails = 6498
L2_cache_bank[48]: Access = 122518, Miss = 72132, Miss_rate = 0.589, Pending_hits = 173, Reservation_fails = 6381
L2_cache_bank[49]: Access = 122405, Miss = 71788, Miss_rate = 0.586, Pending_hits = 181, Reservation_fails = 7682
L2_cache_bank[50]: Access = 122145, Miss = 72112, Miss_rate = 0.590, Pending_hits = 153, Reservation_fails = 5572
L2_cache_bank[51]: Access = 122322, Miss = 71796, Miss_rate = 0.587, Pending_hits = 163, Reservation_fails = 6171
L2_cache_bank[52]: Access = 122465, Miss = 72128, Miss_rate = 0.589, Pending_hits = 168, Reservation_fails = 7699
L2_cache_bank[53]: Access = 121905, Miss = 71816, Miss_rate = 0.589, Pending_hits = 174, Reservation_fails = 5732
L2_cache_bank[54]: Access = 218112, Miss = 72150, Miss_rate = 0.331, Pending_hits = 233, Reservation_fails = 10595
L2_cache_bank[55]: Access = 121904, Miss = 71804, Miss_rate = 0.589, Pending_hits = 214, Reservation_fails = 4883
L2_cache_bank[56]: Access = 232663, Miss = 72176, Miss_rate = 0.310, Pending_hits = 209, Reservation_fails = 5914
L2_cache_bank[57]: Access = 122295, Miss = 71712, Miss_rate = 0.586, Pending_hits = 234, Reservation_fails = 13311
L2_cache_bank[58]: Access = 236816, Miss = 72088, Miss_rate = 0.304, Pending_hits = 217, Reservation_fails = 6704
L2_cache_bank[59]: Access = 121845, Miss = 71712, Miss_rate = 0.589, Pending_hits = 229, Reservation_fails = 9297
L2_cache_bank[60]: Access = 228425, Miss = 72072, Miss_rate = 0.316, Pending_hits = 228, Reservation_fails = 4426
L2_cache_bank[61]: Access = 121477, Miss = 71736, Miss_rate = 0.591, Pending_hits = 230, Reservation_fails = 5835
L2_cache_bank[62]: Access = 235201, Miss = 72053, Miss_rate = 0.306, Pending_hits = 196, Reservation_fails = 5252
L2_cache_bank[63]: Access = 121531, Miss = 71692, Miss_rate = 0.590, Pending_hits = 200, Reservation_fails = 5507
L2_total_cache_accesses = 14182410
L2_total_cache_misses = 7344560
L2_total_cache_miss_rate = 0.5179
L2_total_cache_pending_hits = 13153
L2_total_cache_reservation_fails = 502314
L2_total_cache_breakdown:
	L2_cache_stats_breakdown[GLOBAL_ACC_R][HIT] = 1392709
	L2_cache_stats_breakdown[GLOBAL_ACC_R][HIT_RESERVED] = 13153
	L2_cache_stats_breakdown[GLOBAL_ACC_R][MISS] = 474452
	L2_cache_stats_breakdown[GLOBAL_ACC_R][RESERVATION_FAIL] = 502314
	L2_cache_stats_breakdown[GLOBAL_ACC_R][SECTOR_MISS] = 1423296
	L2_cache_stats_breakdown[LOCAL_ACC_R][HIT] = 0
	L2_cache_stats_breakdown[LOCAL_ACC_R][HIT_RESERVED] = 0
	L2_cache_stats_breakdown[LOCAL_ACC_R][MISS] = 0
	L2_cache_stats_breakdown[LOCAL_ACC_R][RESERVATION_FAIL] = 0
	L2_cache_stats_breakdown[LOCAL_ACC_R][SECTOR_MISS] = 0
	L2_cache_stats_breakdown[CONST_ACC_R][HIT] = 0
	L2_cache_stats_breakdown[CONST_ACC_R][HIT_RESERVED] = 0
	L2_cache_stats_breakdown[CONST_ACC_R][MISS] = 0
	L2_cache_stats_breakdown[CONST_ACC_R][RESERVATION_FAIL] = 0
	L2_cache_stats_breakdown[CONST_ACC_R][SECTOR_MISS] = 0
	L2_cache_stats_breakdown[TEXTURE_ACC_R][HIT] = 0
	L2_cache_stats_breakdown[TEXTURE_ACC_R][HIT_RESERVED] = 0
	L2_cache_stats_breakdown[TEXTURE_ACC_R][MISS] = 0
	L2_cache_stats_breakdown[TEXTURE_ACC_R][RESERVATION_FAIL] = 0
	L2_cache_stats_breakdown[TEXTURE_ACC_R][SECTOR_MISS] = 0
	L2_cache_stats_breakdown[GLOBAL_ACC_W][HIT] = 5431988
	L2_cache_stats_breakdown[GLOBAL_ACC_W][HIT_RESERVED] = 0
	L2_cache_stats_breakdown[GLOBAL_ACC_W][MISS] = 167677
	L2_cache_stats_breakdown[GLOBAL_ACC_W][RESERVATION_FAIL] = 0
	L2_cache_stats_breakdown[GLOBAL_ACC_W][SECTOR_MISS] = 5279135
	L2_cache_stats_breakdown[LOCAL_ACC_W][HIT] = 0
	L2_cache_stats_breakdown[LOCAL_ACC_W][HIT_RESERVED] = 0
	L2_cache_stats_breakdown[LOCAL_ACC_W][MISS] = 0
	L2_cache_stats_breakdown[LOCAL_ACC_W][RESERVATION_FAIL] = 0
	L2_cache_stats_breakdown[LOCAL_ACC_W][SECTOR_MISS] = 0
	L2_cache_stats_breakdown[L1_WRBK_ACC][HIT] = 0
	L2_cache_stats_breakdown[L1_WRBK_ACC][HIT_RESERVED] = 0
	L2_cache_stats_breakdown[L1_WRBK_ACC][MISS] = 0
	L2_cache_stats_breakdown[L1_WRBK_ACC][RESERVATION_FAIL] = 0
	L2_cache_stats_breakdown[L1_WRBK_ACC][SECTOR_MISS] = 0
	L2_cache_stats_breakdown[L2_WRBK_ACC][HIT] = 0
	L2_cache_stats_breakdown[L2_WRBK_ACC][HIT_RESERVED] = 0
	L2_cache_stats_breakdown[L2_WRBK_ACC][MISS] = 0
	L2_cache_stats_breakdown[L2_WRBK_ACC][RESERVATION_FAIL] = 0
	L2_cache_stats_breakdown[L2_WRBK_ACC][SECTOR_MISS] = 0
	L2_cache_stats_breakdown[INST_ACC_R][HIT] = 0
	L2_cache_stats_breakdown[INST_ACC_R][HIT_RESERVED] = 0
	L2_cache_stats_breakdown[INST_ACC_R][MISS] = 0
	L2_cache_stats_breakdown[INST_ACC_R][RESERVATION_FAIL] = 0
	L2_cache_stats_breakdown[INST_ACC_R][SECTOR_MISS] = 0
	L2_cache_stats_breakdown[L1_WR_ALLOC_R][HIT] = 0
	L2_cache_stats_breakdown[L1_WR_ALLOC_R][HIT_RESERVED] = 0
	L2_cache_stats_breakdown[L1_WR_ALLOC_R][MISS] = 0
	L2_cache_stats_breakdown[L1_WR_ALLOC_R][RESERVATION_FAIL] = 0
	L2_cache_stats_breakdown[L1_WR_ALLOC_R][SECTOR_MISS] = 0
	L2_cache_stats_breakdown[L2_WR_ALLOC_R][HIT] = 0
	L2_cache_stats_breakdown[L2_WR_ALLOC_R][HIT_RESERVED] = 0
	L2_cache_stats_breakdown[L2_WR_ALLOC_R][MISS] = 0
	L2_cache_stats_breakdown[L2_WR_ALLOC_R][RESERVATION_FAIL] = 0
	L2_cache_stats_breakdown[L2_WR_ALLOC_R][SECTOR_MISS] = 0
	L2_cache_stats_breakdown[GLOBAL_ACC_R][TOTAL_ACCESS] = 3303610
	L2_cache_stats_breakdown[GLOBAL_ACC_W][TOTAL_ACCESS] = 10878800
L2_total_cache_reservation_fail_breakdown:
	L2_cache_stats_fail_breakdown[GLOBAL_ACC_R][MSHR_ENRTY_FAIL] = 196072
	L2_cache_stats_fail_breakdown[GLOBAL_ACC_R][MSHR_MERGE_ENRTY_FAIL] = 306242
L2_cache_data_port_util = 0.095
L2_cache_fill_port_util = 0.026

icnt_total_pkts_mem_to_simt=14182410
icnt_total_pkts_simt_to_mem=14182410
LD_mem_lat_dist  0 0 0 0 0 0 0 0 0 0 0 0 0 0 0 0 0 0 0 0 0 0 0 0 0 0 0
ST_mem_lat_dist  0 0 0 0 0 0 0 0 0 0 0 0 0 0 0 0 0 0 0 0 0 0 0 0 0 0 0
----------------------------Interconnect-DETAILS--------------------------------
Req_Network_injected_packets_num = 14182410
Req_Network_cycles = 1158652
Req_Network_injected_packets_per_cycle =      12.2404 
Req_Network_conflicts_per_cycle =      15.6162
Req_Network_conflicts_per_cycle_util =      16.2550
Req_Bank_Level_Parallism =      12.7411
Req_Network_in_buffer_full_per_cycle =       3.0887
Req_Network_in_buffer_avg_util =      51.2732
Req_Network_out_buffer_full_per_cycle =       0.1665
Req_Network_out_buffer_avg_util =      15.7375

Reply_Network_injected_packets_num = 14182410
Reply_Network_cycles = 1158652
Reply_Network_injected_packets_per_cycle =       12.2404
Reply_Network_conflicts_per_cycle =       11.2625
Reply_Network_conflicts_per_cycle_util =      11.7310
Reply_Bank_Level_Parallism =      12.7497
Reply_Network_in_buffer_full_per_cycle =       0.0000
Reply_Network_in_buffer_avg_util =       5.1836
Reply_Network_out_buffer_full_per_cycle =       0.0000
Reply_Network_out_buffer_avg_util =       0.1530
----------------------------END-of-Interconnect-DETAILS-------------------------


gpgpu_simulation_time = 0 days, 3 hrs, 57 min, 42 sec (14262 sec)
gpgpu_simulation_rate = 266999 (inst/sec)
gpgpu_simulation_rate = 81 (cycle/sec)
gpgpu_silicon_slowdown = 13975308x
GPGPU-Sim: synchronize waiting for inactive GPU simulation
GPGPU-Sim API: Stream Manager State
GPGPU-Sim: detected inactive GPU simulation thread
GPGPU-Sim: *** exit detected ***
