

        *** GPGPU-Sim Simulator Version 4.0.0  [build gpgpu-sim_git-commit-ffe0a1a00e984ecce9bf36e17ab94c4de0de8108_modified_0.0] ***


GPGPU-Sim PTX: simulation mode 0 (can change with PTX_SIM_MODE_FUNC environment variable:
               1=functional simulation only, 0=detailed performance simulator)
GPGPU-Sim PTX: overriding embedded ptx with ptx file (PTX_SIM_USE_PTX_FILE is set)
GPGPU-Sim: Configuration options:

-save_embedded_ptx                      0 # saves ptx files embedded in binary as <n>.ptx
-keep                                   0 # keep intermediate files created by GPGPU-Sim when interfacing with external programs
-gpgpu_ptx_save_converted_ptxplus                    0 # Saved converted ptxplus to a file
-gpgpu_occupancy_sm_number                   70 # The SM number to pass to ptxas when getting register usage for computing GPU occupancy. This parameter is required in the config.
-ptx_opcode_latency_int      4,13,4,5,145,21 # Opcode latencies for integers <ADD,MAX,MUL,MAD,DIV,SHFL>Default 1,1,19,25,145,32
-ptx_opcode_latency_fp          4,13,4,5,39 # Opcode latencies for single precision floating points <ADD,MAX,MUL,MAD,DIV>Default 1,1,1,1,30
-ptx_opcode_latency_dp         8,19,8,8,330 # Opcode latencies for double precision floating points <ADD,MAX,MUL,MAD,DIV>Default 8,8,8,8,335
-ptx_opcode_latency_sfu                  100 # Opcode latencies for SFU instructionsDefault 8
-ptx_opcode_latency_tesnor                   64 # Opcode latencies for Tensor instructionsDefault 64
-ptx_opcode_initiation_int          2,2,2,2,8,4 # Opcode initiation intervals for integers <ADD,MAX,MUL,MAD,DIV,SHFL>Default 1,1,4,4,32,4
-ptx_opcode_initiation_fp            2,2,2,2,4 # Opcode initiation intervals for single precision floating points <ADD,MAX,MUL,MAD,DIV>Default 1,1,1,1,5
-ptx_opcode_initiation_dp          4,4,4,4,130 # Opcode initiation intervals for double precision floating points <ADD,MAX,MUL,MAD,DIV>Default 8,8,8,8,130
-ptx_opcode_initiation_sfu                    8 # Opcode initiation intervals for sfu instructionsDefault 8
-ptx_opcode_initiation_tensor                   64 # Opcode initiation intervals for tensor instructionsDefault 64
-cdp_latency         7200,8000,100,12000,1600 # CDP API latency <cudaStreamCreateWithFlags, cudaGetParameterBufferV2_init_perWarp, cudaGetParameterBufferV2_perKernel, cudaLaunchDeviceV2_init_perWarp, cudaLaunchDevicV2_perKernel>Default 7200,8000,100,12000,1600
-network_mode                           2 # Interconnection network mode
-inter_config_file                   mesh # Interconnection network config file
-icnt_in_buffer_limit                  512 # in_buffer_limit
-icnt_out_buffer_limit                  512 # out_buffer_limit
-icnt_subnets                           2 # subnets
-icnt_arbiter_algo                      1 # arbiter_algo
-icnt_verbose                           0 # inct_verbose
-icnt_grant_cycles                      1 # grant_cycles
-gpgpu_ptx_use_cuobjdump                    1 # Use cuobjdump to extract ptx and sass from binaries
-gpgpu_experimental_lib_support                    0 # Try to extract code from cuda libraries [Broken because of unknown cudaGetExportTable]
-checkpoint_option                      0 #  checkpointing flag (0 = no checkpoint)
-checkpoint_kernel                      1 #  checkpointing during execution of which kernel (1- 1st kernel)
-checkpoint_CTA                         0 #  checkpointing after # of CTA (< less than total CTA)
-resume_option                          0 #  resume flag (0 = no resume)
-resume_kernel                          0 #  Resume from which kernel (1= 1st kernel)
-resume_CTA                             0 #  resume from which CTA 
-checkpoint_CTA_t                       0 #  resume from which CTA 
-checkpoint_insn_Y                      0 #  resume from which CTA 
-gpgpu_ptx_convert_to_ptxplus                    0 # Convert SASS (native ISA) to ptxplus and run ptxplus
-gpgpu_ptx_force_max_capability                   70 # Force maximum compute capability
-gpgpu_ptx_inst_debug_to_file                    0 # Dump executed instructions' debug information to file
-gpgpu_ptx_inst_debug_file       inst_debug.txt # Executed instructions' debug output file
-gpgpu_ptx_inst_debug_thread_uid                    1 # Thread UID for executed instructions' debug output
-gpgpu_n_mem_for_l2wb_pcommit                   32 # number of memory modules (e.g. memory controllers) in gpu
-gpgpu_n_sub_partition_per_mchannel_for_l2wb_pcommit                    2 # number of memory subpartition in each memory module
-gpgpu_dl2_bsize_for_l2wb_pcommit                  128 # default 128 bytes
-gpgpu_simd_model                       1 # 1 = post-dominator
-gpgpu_shader_core_pipeline              2048:32 # shader core pipeline config, i.e., {<nthread>:<warpsize>}
-gpgpu_tex_cache:l1  N:4:128:256,L:R:m:N:L,T:512:8,128:2 # per-shader L1 texture cache  (READ-ONLY) config  {<nsets>:<bsize>:<assoc>,<rep>:<wr>:<alloc>:<wr_alloc>,<mshr>:<N>:<merge>,<mq>:<rf>}
-gpgpu_const_cache:l1 N:128:64:8,L:R:f:N:L,S:2:64,4 # per-shader L1 constant memory cache  (READ-ONLY) config  {<nsets>:<bsize>:<assoc>,<rep>:<wr>:<alloc>:<wr_alloc>,<mshr>:<N>:<merge>,<mq>} 
-gpgpu_cache:il1     N:64:128:16,L:R:f:N:L,S:2:48,4 # shader L1 instruction cache config  {<nsets>:<bsize>:<assoc>,<rep>:<wr>:<alloc>:<wr_alloc>,<mshr>:<N>:<merge>,<mq>} 
-gpgpu_cache:dl1     S:1:128:256,L:L:s:N:L,A:256:8,16:0,32 # per-shader L1 data cache config  {<nsets>:<bsize>:<assoc>,<rep>:<wr>:<alloc>:<wr_alloc>,<mshr>:<N>:<merge>,<mq> | none}
-gpgpu_l1_banks                         4 # The number of L1 cache banks
-gpgpu_l1_banks_byte_interleaving                   32 # l1 banks byte interleaving granularity
-gpgpu_l1_banks_hashing_function                    0 # l1 banks hashing function
-gpgpu_l1_latency                      20 # L1 Hit Latency
-gpgpu_smem_latency                    20 # smem Latency
-gpgpu_cache:dl1PrefL1                 none # per-shader L1 data cache config  {<nsets>:<bsize>:<assoc>,<rep>:<wr>:<alloc>:<wr_alloc>,<mshr>:<N>:<merge>,<mq> | none}
-gpgpu_cache:dl1PrefShared                 none # per-shader L1 data cache config  {<nsets>:<bsize>:<assoc>,<rep>:<wr>:<alloc>:<wr_alloc>,<mshr>:<N>:<merge>,<mq> | none}
-gpgpu_gmem_skip_L1D                    0 # global memory access skip L1D cache (implements -Xptxas -dlcm=cg, default=no skip)
-gpgpu_perfect_mem                      0 # enable perfect memory mode (no cache miss)
-n_regfile_gating_group                    4 # group of lanes that should be read/written together)
-gpgpu_clock_gated_reg_file                    0 # enable clock gated reg file for power calculations
-gpgpu_clock_gated_lanes                    0 # enable clock gated lanes for power calculations
-gpgpu_shader_registers                65536 # Number of registers per shader core. Limits number of concurrent CTAs. (default 8192)
-gpgpu_registers_per_block                65536 # Maximum number of registers per CTA. (default 8192)
-gpgpu_ignore_resources_limitation                    0 # gpgpu_ignore_resources_limitation (default 0)
-gpgpu_shader_cta                      32 # Maximum number of concurrent CTAs in shader (default 8)
-gpgpu_num_cta_barriers                   16 # Maximum number of named barriers per CTA (default 16)
-gpgpu_n_clusters                      80 # number of processing clusters
-gpgpu_n_cores_per_cluster                    1 # number of simd cores per cluster
-gpgpu_n_cluster_ejection_buffer_size                   32 # number of packets in ejection buffer
-gpgpu_n_ldst_response_buffer_size                    2 # number of response packets in ld/st unit ejection buffer
-gpgpu_shmem_per_block                65536 # Size of shared memory per thread block or CTA (default 48kB)
-gpgpu_shmem_size                   98304 # Size of shared memory per shader core (default 16kB)
-gpgpu_adaptive_cache_config            536870913 # adaptive_cache_config
-gpgpu_shmem_sizeDefault                98304 # Size of shared memory per shader core (default 16kB)
-gpgpu_shmem_size_PrefL1                16384 # Size of shared memory per shader core (default 16kB)
-gpgpu_shmem_size_PrefShared                16384 # Size of shared memory per shader core (default 16kB)
-gpgpu_shmem_num_banks                   32 # Number of banks in the shared memory in each shader core (default 16)
-gpgpu_shmem_limited_broadcast                    0 # Limit shared memory to do one broadcast per cycle (default on)
-gpgpu_shmem_warp_parts                    1 # Number of portions a warp is divided into for shared memory bank conflict check 
-gpgpu_mem_unit_ports                    1 # The number of memory transactions allowed per core cycle
-gpgpu_shmem_warp_parts                    1 # Number of portions a warp is divided into for shared memory bank conflict check 
-gpgpu_warpdistro_shader                   -1 # Specify which shader core to collect the warp size distribution from
-gpgpu_warp_issue_shader                    0 # Specify which shader core to collect the warp issue distribution from
-gpgpu_local_mem_map                    1 # Mapping from local memory space address to simulated GPU physical address space (default = enabled)
-gpgpu_num_reg_banks                   16 # Number of register banks (default = 8)
-gpgpu_reg_bank_use_warp_id                    0 # Use warp ID in mapping registers to banks (default = off)
-gpgpu_sub_core_model                    1 # Sub Core Volta/Pascal model (default = off)
-gpgpu_enable_specialized_operand_collector                    0 # enable_specialized_operand_collector
-gpgpu_operand_collector_num_units_sp                    4 # number of collector units (default = 4)
-gpgpu_operand_collector_num_units_dp                    0 # number of collector units (default = 0)
-gpgpu_operand_collector_num_units_sfu                    4 # number of collector units (default = 4)
-gpgpu_operand_collector_num_units_int                    0 # number of collector units (default = 0)
-gpgpu_operand_collector_num_units_tensor_core                    4 # number of collector units (default = 4)
-gpgpu_operand_collector_num_units_mem                    2 # number of collector units (default = 2)
-gpgpu_operand_collector_num_units_gen                    8 # number of collector units (default = 0)
-gpgpu_operand_collector_num_in_ports_sp                    1 # number of collector unit in ports (default = 1)
-gpgpu_operand_collector_num_in_ports_dp                    0 # number of collector unit in ports (default = 0)
-gpgpu_operand_collector_num_in_ports_sfu                    1 # number of collector unit in ports (default = 1)
-gpgpu_operand_collector_num_in_ports_int                    0 # number of collector unit in ports (default = 0)
-gpgpu_operand_collector_num_in_ports_tensor_core                    1 # number of collector unit in ports (default = 1)
-gpgpu_operand_collector_num_in_ports_mem                    1 # number of collector unit in ports (default = 1)
-gpgpu_operand_collector_num_in_ports_gen                    8 # number of collector unit in ports (default = 0)
-gpgpu_operand_collector_num_out_ports_sp                    1 # number of collector unit in ports (default = 1)
-gpgpu_operand_collector_num_out_ports_dp                    0 # number of collector unit in ports (default = 0)
-gpgpu_operand_collector_num_out_ports_sfu                    1 # number of collector unit in ports (default = 1)
-gpgpu_operand_collector_num_out_ports_int                    0 # number of collector unit in ports (default = 0)
-gpgpu_operand_collector_num_out_ports_tensor_core                    1 # number of collector unit in ports (default = 1)
-gpgpu_operand_collector_num_out_ports_mem                    1 # number of collector unit in ports (default = 1)
-gpgpu_operand_collector_num_out_ports_gen                    8 # number of collector unit in ports (default = 0)
-gpgpu_coalesce_arch                   60 # Coalescing arch (GT200 = 13, Fermi = 20)
-gpgpu_num_sched_per_core                    4 # Number of warp schedulers per core
-gpgpu_max_insn_issue_per_warp                    1 # Max number of instructions that can be issued per warp in one cycle by scheduler (either 1 or 2)
-gpgpu_dual_issue_diff_exec_units                    1 # should dual issue use two different execution unit resources (Default = 1)
-gpgpu_simt_core_sim_order                    1 # Select the simulation order of cores in a cluster (0=Fix, 1=Round-Robin)
-gpgpu_pipeline_widths 4,4,4,4,4,4,4,4,4,4,8,4,4 # Pipeline widths ID_OC_SP,ID_OC_DP,ID_OC_INT,ID_OC_SFU,ID_OC_MEM,OC_EX_SP,OC_EX_DP,OC_EX_INT,OC_EX_SFU,OC_EX_MEM,EX_WB,ID_OC_TENSOR_CORE,OC_EX_TENSOR_CORE
-gpgpu_tensor_core_avail                    1 # Tensor Core Available (default=0)
-gpgpu_num_sp_units                     4 # Number of SP units (default=1)
-gpgpu_num_dp_units                     4 # Number of DP units (default=0)
-gpgpu_num_int_units                    4 # Number of INT units (default=0)
-gpgpu_num_sfu_units                    4 # Number of SF units (default=1)
-gpgpu_num_tensor_core_units                    4 # Number of tensor_core units (default=1)
-gpgpu_num_mem_units                    1 # Number if ldst units (default=1) WARNING: not hooked up to anything
-gpgpu_scheduler                      gto # Scheduler configuration: < lrr | gto | two_level_active > If two_level_active:<num_active_warps>:<inner_prioritization>:<outer_prioritization>For complete list of prioritization values see shader.h enum scheduler_prioritization_typeDefault: gto
-gpgpu_concurrent_kernel_sm                    0 # Support concurrent kernels on a SM (default = disabled)
-gpgpu_perfect_inst_const_cache                    1 # perfect inst and const cache mode, so all inst and const hits in the cache(default = disabled)
-gpgpu_inst_fetch_throughput                    4 # the number of fetched intruction per warp each cycle
-gpgpu_reg_file_port_throughput                    2 # the number ports of the register file
-specialized_unit_1         0,4,4,4,4,BRA # specialized unit config {<enabled>,<num_units>:<latency>:<initiation>,<ID_OC_SPEC>:<OC_EX_SPEC>,<NAME>}
-specialized_unit_2         0,4,4,4,4,BRA # specialized unit config {<enabled>,<num_units>:<latency>:<initiation>,<ID_OC_SPEC>:<OC_EX_SPEC>,<NAME>}
-specialized_unit_3         0,4,4,4,4,BRA # specialized unit config {<enabled>,<num_units>:<latency>:<initiation>,<ID_OC_SPEC>:<OC_EX_SPEC>,<NAME>}
-specialized_unit_4         0,4,4,4,4,BRA # specialized unit config {<enabled>,<num_units>:<latency>:<initiation>,<ID_OC_SPEC>:<OC_EX_SPEC>,<NAME>}
-specialized_unit_5         0,4,4,4,4,BRA # specialized unit config {<enabled>,<num_units>:<latency>:<initiation>,<ID_OC_SPEC>:<OC_EX_SPEC>,<NAME>}
-specialized_unit_6         0,4,4,4,4,BRA # specialized unit config {<enabled>,<num_units>:<latency>:<initiation>,<ID_OC_SPEC>:<OC_EX_SPEC>,<NAME>}
-specialized_unit_7         0,4,4,4,4,BRA # specialized unit config {<enabled>,<num_units>:<latency>:<initiation>,<ID_OC_SPEC>:<OC_EX_SPEC>,<NAME>}
-specialized_unit_8         0,4,4,4,4,BRA # specialized unit config {<enabled>,<num_units>:<latency>:<initiation>,<ID_OC_SPEC>:<OC_EX_SPEC>,<NAME>}
-gpgpu_perf_sim_memcpy                    1 # Fill the L2 cache on memcpy
-gpgpu_simple_dram_model                    0 # simple_dram_model with fixed latency and BW
-gpgpu_dram_scheduler                    1 # 0 = fifo, 1 = FR-FCFS (defaul)
-gpgpu_dram_partition_queues          64:64:64:64 # i2$:$2d:d2$:$2i
-l2_ideal                               0 # Use a ideal L2 cache that always hit
-gpgpu_cache:dl2     S:32:128:24,L:B:m:L:P,A:192:4,32:0,32 # unified banked L2 data cache config  {<nsets>:<bsize>:<assoc>,<rep>:<wr>:<alloc>:<wr_alloc>,<mshr>:<N>:<merge>,<mq>}
-gpgpu_cache:dl2_texture_only                    0 # L2 cache used for texture only
-gpgpu_n_mem                           32 # number of memory modules (e.g. memory controllers) in gpu
-gpgpu_n_sub_partition_per_mchannel                    2 # number of memory subpartition in each memory module
-gpgpu_n_mem_per_ctrlr                    1 # number of memory chips per memory controller
-gpgpu_memlatency_stat                   14 # track and display latency statistics 0x2 enables MC, 0x4 enables queue logs
-gpgpu_frfcfs_dram_sched_queue_size                   64 # 0 = unlimited (default); # entries per chip
-gpgpu_dram_return_queue_size                  192 # 0 = unlimited (default); # entries per chip
-gpgpu_dram_buswidth                   16 # default = 4 bytes (8 bytes per cycle at DDR)
-gpgpu_dram_burst_length                    2 # Burst length of each DRAM request (default = 4 data bus cycle)
-dram_data_command_freq_ratio                    2 # Frequency ratio between DRAM data bus and command bus (default = 2 times, i.e. DDR)
-gpgpu_dram_timing_opt nbk=16:CCD=1:RRD=3:RCD=12:RAS=28:RP=12:RC=40: CL=12:WL=2:CDLR=3:WR=10:nbkgrp=4:CCDL=2:RTPL=3 # DRAM timing parameters = {nbk:tCCD:tRRD:tRCD:tRAS:tRP:tRC:CL:WL:tCDLR:tWR:nbkgrp:tCCDL:tRTPL}
-gpgpu_l2_rop_latency                  160 # ROP queue latency (default 85)
-dram_latency                         200 # DRAM latency (default 30)
-dram_write_latency                   600 # DRAM write latency (default 100)
-dram_dual_bus_interface                    1 # dual_bus_interface (default = 0) 
-dram_bnk_indexing_policy                    0 # dram_bnk_indexing_policy (0 = normal indexing, 1 = Xoring with the higher bits) (Default = 0)
-dram_bnkgrp_indexing_policy                    1 # dram_bnkgrp_indexing_policy (0 = take higher bits, 1 = take lower bits) (Default = 0)
-dram_seperate_write_queue_enable                    0 # Seperate_Write_Queue_Enable
-dram_write_queue_size             32:28:16 # Write_Queue_Size
-dram_elimnate_rw_turnaround                    0 # elimnate_rw_turnaround i.e set tWTR and tRTW = 0
-icnt_flit_size                        40 # icnt_flit_size
-gpgpu_mem_addr_mapping dramid@8;00000000.00000000.00000000.00000000.0000RRRR.RRRRRRRR.RBBBCCCB.CCCSSSSS # mapping memory address to dram model {dramid@<start bit>;<memory address map>}
-gpgpu_mem_addr_test                    0 # run sweep test to check address mapping for aliased address
-gpgpu_mem_address_mask                    1 # 0 = old addressing mask, 1 = new addressing mask, 2 = new add. mask + flipped bank sel and chip sel bits
-gpgpu_memory_partition_indexing                    0 # 0 = no indexing, 1 = bitwise xoring, 2 = IPoly, 3 = custom indexing
-gpuwattch_xml_file         gpuwattch.xml # GPUWattch XML file
-power_simulation_enabled                    0 # Turn on power simulator (1=On, 0=Off)
-power_per_cycle_dump                    0 # Dump detailed power output each cycle
-power_trace_enabled                    0 # produce a file for the power trace (1=On, 0=Off)
-power_trace_zlevel                     6 # Compression level of the power trace output log (0=no comp, 9=highest)
-steady_power_levels_enabled                    0 # produce a file for the steady power levels (1=On, 0=Off)
-steady_state_definition                  8:4 # allowed deviation:number of samples
-gpgpu_max_cycle                        0 # terminates gpu simulation early (0 = no limit)
-gpgpu_max_insn                         0 # terminates gpu simulation early (0 = no limit)
-gpgpu_max_cta                          0 # terminates gpu simulation early (0 = no limit)
-gpgpu_max_completed_cta                 2700 # terminates gpu simulation early (0 = no limit)
-gpgpu_runtime_stat                   500 # display runtime statistics such as dram utilization {<freq>:<flag>}
-liveness_message_freq                    1 # Minimum number of seconds between simulation liveness messages (0 = always print)
-gpgpu_compute_capability_major                    7 # Major compute capability version number
-gpgpu_compute_capability_minor                    0 # Minor compute capability version number
-gpgpu_flush_l1_cache                    1 # Flush L1 cache at the end of each kernel call
-gpgpu_flush_l2_cache                    0 # Flush L2 cache at the end of each kernel call
-gpgpu_deadlock_detect                    1 # Stop the simulation at deadlock (1=on (default), 0=off)
-gpgpu_ptx_instruction_classification                    0 # if enabled will classify ptx instruction types per kernel (Max 255 kernels now)
-gpgpu_ptx_sim_mode                     0 # Select between Performance (default) or Functional simulation (1)
-gpgpu_clock_domains 1132.0:1132.0:1132.0:850.0 # Clock Domain Frequencies in MhZ {<Core Clock>:<ICNT Clock>:<L2 Clock>:<DRAM Clock>}
-gpgpu_max_concurrent_kernel                    8 # maximum kernels that can run concurrently on GPU
-gpgpu_cflog_interval                    0 # Interval between each snapshot in control flow logger
-visualizer_enabled               48e293453df1fbca85f95b4ef3d81d0c  /home/pli11/Videos/parboil_benchmark/parboil/benchmarks/mri-gridding/build/nvm_ssort_default/mri-gridding
Extracting PTX file and ptxas options    1: mri-gridding.1.sm_70.ptx -arch=sm_70
Extracting PTX file and ptxas options    2: mri-gridding.2.sm_70.ptx -arch=sm_70
      0 # Turn on visualizer output (1=On, 0=Off)
-visualizer_outputfile                 NULL # Specifies the output log file for visualizer
-visualizer_zlevel                      6 # Compression level of the visualizer output log (0=no comp, 9=highest)
-gpgpu_stack_size_limit                 1024 # GPU thread stack size
-gpgpu_heap_size_limit              8388608 # GPU malloc heap size 
-gpgpu_runtime_sync_depth_limit                    2 # GPU device runtime synchronize depth
-gpgpu_runtime_pending_launch_count_limit                 2048 # GPU device runtime pending launch count
-trace_enabled                          0 # Turn on traces
-trace_components                    none # comma seperated list of traces to enable. Complete list found in trace_streams.tup. Default none
-trace_sampling_core                    0 # The core which is printed using CORE_DPRINTF. Default 0
-trace_sampling_memory_partition                   -1 # The memory partition which is printed using MEMPART_DPRINTF. Default -1 (i.e. all)
-enable_ptx_file_line_stats                    1 # Turn on PTX source line statistic profiling. (1 = On)
-ptx_line_stats_filename gpgpu_inst_stats.txt # Output file for PTX source line statistics.
-gpgpu_kernel_launch_latency                 5000 # Kernel launch latency in cycles. Default: 0
-gpgpu_cdp_enabled                      0 # Turn on CDP
-gpgpu_TB_launch_latency                    0 # thread block launch latency in cycles. Default: 0
DRAM Timing Options:
nbk                                    16 # number of banks
CCD                                     1 # column to column delay
RRD                                     3 # minimal delay between activation of rows in different banks
RCD                                    12 # row to column delay
RAS                                    28 # time needed to activate row
RP                                     12 # time needed to precharge (deactivate) row
RC                                     40 # row cycle time
CDLR                                    3 # switching from write to read (changes tWTR)
WR                                     10 # last data-in to row precharge
CL                                     12 # CAS latency
WL                                      2 # Write latency
nbkgrp                                  4 # number of bank groups
CCDL                                    2 # column to column delay between accesses to different bank groups
RTPL                                    3 # read to precharge delay between accesses to different bank groups
Total number of memory sub partition = 64
addr_dec_mask[CHIP]  = 0000000000001f00 	high:13 low:8
addr_dec_mask[BK]    = 00000000000e2000 	high:20 low:13
addr_dec_mask[ROW]   = 00000001fff00000 	high:33 low:20
addr_dec_mask[COL]   = 000000000001c0ff 	high:17 low:0
addr_dec_mask[BURST] = 000000000000001f 	high:5 low:0
sub_partition_id_mask = 0000000000002000
GPGPU-Sim uArch: clock freqs: 1132000000.000000:1132000000.000000:1132000000.000000:850000000.000000
GPGPU-Sim uArch: clock periods: 0.00000000088339222615:0.00000000088339222615:0.00000000088339222615:0.00000000117647058824
*** Initializing Memory Statistics ***
GPGPU-Sim uArch: performance model initialization complete.
self exe links to: /home/pli11/Videos/parboil_benchmark/parboil/benchmarks/mri-gridding/build/nvm_ssort_default/mri-gridding
self exe links to: /home/pli11/Videos/parboil_benchmark/parboil/benchmarks/mri-gridding/build/nvm_ssort_default/mri-gridding
10.1
GPGPU-Sim PTX: __cudaRegisterFatBinary, fat_cubin_handle = 1, filename=default
self exe links to: /home/pli11/Videos/parboil_benchmark/parboil/benchmarks/mri-gridding/build/nvm_ssort_default/mri-gridding
Running md5sum using "md5sum /home/pli11/Videos/parboil_benchmark/parboil/benchmarks/mri-gridding/build/nvm_ssort_default/mri-gridding "
self exe links to: /home/pli11/Videos/parboil_benchmark/parboil/benchmarks/mri-gridding/build/nvm_ssort_default/mri-gridding
Extracting specific PTX file named mri-gridding.1.sm_70.ptx 
Extracting specific PTX file named mri-gridding.2.sm_70.ptx 
EExtracting PTX file and ptxas options    3: mri-gridding.3.sm_70.ptx -arch=sm_70
Extracting PTX file and ptxas options    4: mri-gridding.4.sm_70.ptx -arch=sm_70
xtracting specific PTX file named mri-gridding.3.sm_70.ptx 
Extracting specific PTX file named mri-gridding.4.sm_70.ptx 
self exe links to: /home/pli11/Videos/parboil_benchmark/parboil/benchmarks/mri-gridding/build/nvm_ssort_default/mri-gridding
self exe links to: /home/pli11/Videos/parboil_benchmark/parboil/benchmarks/mri-gridding/build/nvm_ssort_default/mri-gridding
10.1
GPGPU-Sim PTX: __cudaRegisterFatBinary, fat_cubin_handle = 2, filename=default
GPGPU-Sim PTX: __cudaRegisterFunction _Z17gridding_GPU_nvmbP20ReconstructionSamplePjP6float2Pff : hostFun 0x0x404c94, fat_cubin_handle = 2
GPGPU-Sim PTX: Parsing mri-gridding.1.sm_70.ptx
GPGPU-Sim PTX: finished parsing EMBEDDED .ptx file mri-gridding.1.sm_70.ptx
GPGPU-Sim PTX: Parsing mri-gridding.2.sm_70.ptx
GPGPU-Sim PTX: allocating constant region for "cutoff2_c" from 0x100 to 0x104 (global memory space) 1
GPGPU-Sim PTX: allocating constant region for "cutoff_c" from 0x104 to 0x108 (global memory space) 2
GPGPU-Sim PTX: allocating constant region for "gridSize_c" from 0x180 to 0x18c (global memory space) 3
GPGPU-Sim PTX: allocating constant region for "size_xy_c" from 0x18c to 0x190 (global memory space) 4
GPGPU-Sim PTX: allocating constant region for "_1overCutoff2_c" from 0x190 to 0x194 (global memory space) 5
GPGPU-Sim PTX: allocating global region for "NVM_log" from 0x200 to 0x4000200 (global memory space)
GPGPU-Sim PTX: allocating global region for "NVM_flag" from 0x4000200 to 0x4400200 (global memory space)
GPGPU-Sim PTX: instruction assembly for function '_Z14binning_kerneljP20ReconstructionSamplePjS1_S1_jj'...   done.
GPGPU-Sim PTX: instruction assembly for function '_Z19binning_kernel_nvmbjP20ReconstructionSamplePjS1_S1_jj'...   done.
GPGPU-Sim PTX: instruction assembly for function '_Z19binning_kernel_nvmdjP20ReconstructionSamplePjS1_S1_jj'...   done.
GPGPU-Sim PTX: instruction assembly for function '_Z14reorder_kerneliPjP20ReconstructionSampleS1_'...   done.
GPGPU-Sim PTX: instruction assembly for function '_Z19reorder_kernel_nvmaiPjP20ReconstructionSampleS1_'...   done.
GPGPU-Sim PTX: instruction assembly for function '_Z19reorder_kernel_nvmbiPjP20ReconstructionSampleS1_'...   done.
GPGPU-Sim PTX: instruction assembly for function '_Z19reorder_kernel_nvmdiPjP20ReconstructionSampleS1_'...   done.
GPGPU-Sim PTX: instruction assembly for function '_Z19reorder_kernel_nvmgiPjP20ReconstructionSampleS1_'...   done.
GPGPU-Sim PTX: instruction assembly for function '_Z19reorder_kernel_nvmiiPjP20ReconstructionSampleS1_'...   done.
GPGPU-Sim PTX: allocating shared region for "_ZZ12gridding_GPUP20ReconstructionSamplePjP6float2PffE9sharedBin" from 0x0 to 0x600 (shared memory space)
GPGPU-Sim PTX: instruction assembly for function '_Z12gridding_GPUP20ReconstructionSamplePjP6float2Pff'...   done.
GPGPU-Sim PTX: allocating stack frame region for .local "__local_depot10" from 0x0 to 0x8
GPGPU-Sim PTX: allocating shared region for "_ZZ17gridding_GPU_nvmaP20ReconstructionSamplePjP6float2PffE9sharedBin" from 0x0 to 0x600 (shared memory space)
GPGPU-Sim PTX: instruction assembly for function '_Z17gridding_GPU_nvmaP20ReconstructionSamplePjP6float2Pff'...   done.
GPGPU-Sim PTX: allocating stack frame region for .local "__local_depot11" from 0x0 to 0x8
GPGPU-Sim PTX: allocating shared region for "_ZZ17gridding_GPU_nvmbP20ReconstructionSamplePjP6float2PffE9sharedBin" from 0x0 to 0x600 (shared memory space)
GPGPU-Sim PTX: instruction assembly for function '_Z17gridding_GPU_nvmbP20ReconstructionSamplePjP6float2Pff'...   done.
GPGPU-Sim PTX: finished parsing EMBEDDED .ptx file mri-gridding.2.sm_70.ptx
GPGPU-Sim PTX: Parsing mri-gridding.3.sm_70.ptx
GPGPU-Sim PTX: allocating shared region for "s_data" from 0x0 to 0x0 (shared memory space)
GPGPU-Sim PTX: allocating shared region for "_ZZ14scan_L1_kerneljPjS_E6s_data" from 0x0 to 0x1110 (shared memory space)
GPGPU-Sim PTX: instruction assembly for function '_Z14scan_L1_kerneljPjS_'...   done.
GPGPU-Sim PTX: instruction assembly for function '_Z18scan_inter1_kernelPjj'...   done.
GPGPU-Sim PTX: instruction assembly for function '_Z18scan_inter2_kernelPjj'...   done.
GPGPU-Sim PTX: allocating shared region for "_ZZ10uniformAddjPjS_E3uni" from 0x0 to 0x4 (shared memory space)
GPGPU-Sim PTX: instruction assembly for function '_Z10uniformAddjPjS_'...   done.
GPGPU-Sim PTX: finished parsing EMBEDDED .ptx file mri-gridding.3.sm_70.ptx
GPGPU-Sim PTX: Parsing mri-gridding.4.sm_70.ptx
GPGPU-Sim PTX: allocating global region for "NVM_log1" from 0x4400200 to 0x8400200 (global memory space)
GPGPU-Sim PTX: allocating global region for "NVM_log2" from 0x8400200 to 0xc400200 (global memory space)
GPGPU-Sim PTX: allocating global region for "NVM_log3" from 0xc400200 to 0x10400200 (global memory space)
GPGPU-Sim PTX: Warning NVM_flag was declared previous at mri-gridding.2.sm_70.ptx:20 skipping new declaration
GPGPU-Sim PTX: allocating shared region for "_ZZ9splitSortiiPjS_S_E5flags" from 0x0 to 0x1144 (shared memory space)
GPGPU-Sim PTX: allocating shared region for "_ZZ9splitSortiiPjS_S_E7histo_s" from 0x1180 to 0x11c0 (shared memory space)
GPGPU-Sim PTX: instruction assembly for function '_Z9splitSortiiPjS_S_'...   done.
GPGPU-Sim PTX: allocating shared region for "_ZZ14splitSort_nvmoiiPjS_S_E5flags" from 0x0 to 0x1144 (shared memory space)
GPGPU-Sim PTX: allocating shared region for "_ZZ14splitSort_nvmoiiPjS_S_E7histo_s" from 0x1180 to 0x11c0 (shared memory space)
GPGPU-Sim PTX: instruction assembly for function '_Z14splitSort_nvmoiiPjS_S_'...   done.
GPGPU-Sim PTX: allocating shared region for "_ZZ14splitSort_nvmqiiPjS_S_E5flags" from 0x0 to 0x1144 (shared memory space)
GPGPU-Sim PTX: allocating shared region for "_ZZ14splitSort_nvmqiiPjS_S_E7histo_s" from 0x1180 to 0x11c0 (shared memory space)
GPGPU-Sim PTX: instruction assembly for function '_Z14splitSort_nvmqiiPjS_S_'...   done.
GPGPU-Sim PTX: allocating shared region for "_ZZ14splitSort_nvmuiiPjS_S_E5flags" from 0x0 to 0x1144 (shared memory space)
GPGPU-Sim PTX: allocating shared region for "_ZZ14splitSort_nvmuiiPjS_S_E7histo_s" from 0x1180 to 0x11c0 (shared memory space)
GPGPU-Sim PTX: instruction assembly for function '_Z14splitSort_nvmuiiPjS_S_'...   done.
GPGPU-Sim PTX: allocating shared region for "_ZZ14splitSort_nvmwiiPjS_S_E5flags" from 0x0 to 0x1144 (shared memory space)
GPGPU-Sim PTX: allocating shared region for "_ZZ14splitSort_nvmwiiPjS_S_E7histo_s" from 0x1180 to 0x11c0 (shared memory space)
GPGPU-Sim PTX: instruction assembly for function '_Z14splitSort_nvmwiiPjS_S_'...   done.
GPGPU-Sim PTX: allocating shared region for "_ZZ14splitSort_nvm1iiPjS_S_E5flags" from 0x0 to 0x1144 (shared memory space)
GPGPU-Sim PTX: allocating shared region for "_ZZ14splitSort_nvm1iiPjS_S_E7histo_s" from 0x1180 to 0x11c0 (shared memory space)
GPGPU-Sim PTX: instruction assembly for function '_Z14splitSort_nvm1iiPjS_S_'...   done.
GPGPU-Sim PTX: allocating shared region for "_ZZ14splitSort_nvm2iiPjS_S_E5flags" from 0x0 to 0x1144 (shared memory space)
GPGPU-Sim PTX: allocating shared region for "_ZZ14splitSort_nvm2iiPjS_S_E7histo_s" from 0x1180 to 0x11c0 (shared memory space)
GPGPU-Sim PTX: instruction assembly for function '_Z14splitSort_nvm2iiPjS_S_'...   done.
GPGPU-Sim PTX: allocating shared region for "_ZZ14splitSort_nvmbiiPjS_S_E5flags" from 0x0 to 0x1144 (shared memory space)
GPGPU-Sim PTX: allocating shared region for "_ZZ14splitSort_nvmbiiPjS_S_E7histo_s" from 0x1180 to 0x11c0 (shared memory space)
GPGPU-Sim PTX: instruction assembly for function '_Z14splitSort_nvmbiiPjS_S_'...   done.
GPGPU-Sim PTX: allocating shared region for "_ZZ14splitSort_nvmdiiPjS_S_E5flags" from 0x0 to 0x1144 (shared memory space)
GPGPU-Sim PTX: allocating shared region for "_ZZ14splitSort_nvmdiiPjS_S_E7histo_s" from 0x1180 to 0x11c0 (shared memory space)
GPGPU-Sim PTX: instruction assembly for function '_Z14splitSort_nvmdiiPjS_S_'...   done.
GPGPU-Sim PTX: allocating shared region for "_ZZ19splitRearrange_nvmbiiPjS_S_S_S_E7histo_s" from 0x0 to 0x40 (shared memory space)
GPGPU-Sim PTX: allocating shared region for "_ZZ19splitRearrange_nvmbiiPjS_S_S_S_E7array_s" from 0x80 to 0x1080 (shared memory space)
GPGPU-Sim PTX: instruction assembly for function '_Z19splitRearrange_nvmbiiPjS_S_S_S_'...   done.
GPGPU-Sim PTX: allocating shared region for "_ZZ19splitRearrange_nvmdiiPjS_S_S_S_E7histo_s" from 0x0 to 0x40 (shared memory space)
GPGPU-Sim PTX: allocating shared region for "_ZZ19splitRearrange_nvmdiiPjS_S_S_S_E7array_s" from 0x80 to 0x1080 (shared memory space)
GPGPU-Sim PTX: instruction assembly for function '_Z19splitRearrange_nvmdiiPjS_S_S_S_'...   done.
GPGPU-Sim PTX: allocating shared region for "_ZZ19splitRearrange_nvmoiiPjS_S_S_S_E7histo_s" from 0x0 to 0x40 (shared memory space)
GPGPU-Sim PTX: allocating shared region for "_ZZ19splitRearrange_nvmoiiPjS_S_S_S_E7array_s" from 0x80 to 0x1080 (shared memory space)
GPGPU-Sim PTX: instruction assembly for function '_Z19splitRearrange_nvmoiiPjS_S_S_S_'...   done.
GPGPU-Sim PTX: allocating shared region for "_ZZ19splitRearrange_nvmqiiPjS_S_S_S_E7histo_s" from 0x0 to 0x40 (shared memory space)
GPGPU-Sim PTX: allocating shared region for "_ZZ19splitRearrange_nvmqiiPjS_S_S_S_E7array_s" from 0x80 to 0x1080 (shared memory space)
GPGPU-Sim PTX: instruction assembly for function '_Z19splitRearrange_nvmqiiPjS_S_S_S_'...   done.
GPGPU-Sim PTX: allocating shared region for "_ZZ19splitRearrange_nvmuiiPjS_S_S_S_E7histo_s" from 0x0 to 0x40 (shared memory space)
GPGPU-Sim PTX: allocating shared region for "_ZZ19splitRearrange_nvmuiiPjS_S_S_S_E7array_s" from 0x80 to 0x1080 (shared memory space)
GPGPU-Sim PTX: instruction assembly for function '_Z19splitRearrange_nvmuiiPjS_S_S_S_'...   done.
GPGPU-Sim PTX: allocating shared region for "_ZZ19splitRearrange_nvmwiiPjS_S_S_S_E7histo_s" from 0x0 to 0x40 (shared memory space)
GPGPU-Sim PTX: allocating shared region for "_ZZ19splitRearrange_nvmwiiPjS_S_S_S_E7array_s" from 0x80 to 0x1080 (shared memory space)
GPGPU-Sim PTX: instruction assembly for function '_Z19splitRearrange_nvmwiiPjS_S_S_S_'...   done.
GPGPU-Sim PTX: allocating shared region for "_ZZ19splitRearrange_nvm1iiPjS_S_S_S_E7histo_s" from 0x0 to 0x40 (shared memory space)
GPGPU-Sim PTX: allocating shared region for "_ZZ19splitRearrange_nvm1iiPjS_S_S_S_E7array_s" from 0x80 to 0x1080 (shared memory space)
GPGPU-Sim PTX: instruction assembly for function '_Z19splitRearrange_nvm1iiPjS_S_S_S_'...   done.
GPGPU-Sim PTX: allocating shared region for "_ZZ19splitRearrange_nvm2iiPjS_S_S_S_E7histo_s" from 0x0 to 0x40 (shared memory space)
GPGPU-Sim PTX: allocating shared region for "_ZZ19splitRearrange_nvm2iiPjS_S_S_S_E7array_s" from 0x80 to 0x1080 (shared memory space)
GPGPU-Sim PTX: instruction assembly for function '_Z19splitRearrange_nvm2iiPjS_S_S_S_'...   done.
GPGPU-Sim PTX: allocating shared region for "_ZZ14splitSort_nvmgiiPjS_S_E5flags" from 0x0 to 0x1144 (shared memory space)
GPGPU-Sim PTX: allocating shared region for "_ZZ14splitSort_nvmgiiPjS_S_E7histo_s" from 0x1180 to 0x11c0 (shared memory space)
GPGPU-Sim PTX: instruction assembly for function '_Z14splitSort_nvmgiiPjS_S_'...   done.
GPGPU-Sim PTX: allocating shared region for "_ZZ14splitSort_nvm3iiPjS_S_E5flags" from 0x0 to 0x1144 (shared memory space)
GPGPU-Sim PTX: allocating shared region for "_ZZ14splitSort_nvm3iiPjS_S_E7histo_s" from 0x1180 to 0x11c0 (shared memory space)
GPGPU-Sim PTX: instruction assembly for function '_Z14splitSort_nvm3iiPjS_S_'...   done.
GPGPU-Sim PTX: allocating shared region for "_ZZ14splitSort_nvm4iiPjS_S_E5flags" from 0x0 to 0x1144 (shared memory space)
GPGPU-Sim PTX: allocating shared region for "_ZZ14splitSort_nvm4iiPjS_S_E7histo_s" from 0x1180 to 0x11c0 (shared memory space)
GPGPU-Sim PTX: instruction assembly for function '_Z14splitSort_nvm4iiPjS_S_'...   done.
GPGPU-Sim PTX: allocating shared region for "_ZZ14splitSort_nvmiiiPjS_S_E5flags" from 0x0 to 0x1144 (shared memory space)
GPGPU-Sim PTX: allocating shared region for "_ZZ14splitSort_nvmiiiPjS_S_E7histo_s" from 0x1180 to 0x11c0 (shared memory space)
GPGPU-Sim PTX: instruction assembly for function '_Z14splitSort_nvmiiiPjS_S_'...   done.
GPGPU-Sim PTX: allocating shared region for "_ZZ14splitSort_nvm5iiPjS_S_E5flags" from 0x0 to 0x1144 (shared memory space)
GPGPU-Sim PTX: allocating shared region for "_ZZ14splitSort_nvm5iiPjS_S_E7histo_s" from 0x1180 to 0x11c0 (shared memory space)
GPGPU-Sim PTX: instruction assembly for function '_Z14splitSort_nvm5iiPjS_S_'...   done.
GPGPU-Sim PTX: allocating shared region for "_ZZ14splitSort_nvm6iiPjS_S_E5flags" from 0x0 to 0x1144 (shared memory space)
GPGPU-Sim PTX: allocating shared region for "_ZZ14splitSort_nvm6iiPjS_S_E7histo_s" from 0x1180 to 0x11c0 (shared memory space)
GPGPU-Sim PTX: instruction assembly for function '_Z14splitSort_nvm6iiPjS_S_'...   done.
GPGPU-Sim PTX: allocating shared region for "_ZZ19splitRearrange_nvmgiiPjS_S_S_S_E7histo_s" from 0x0 to 0x40 (shared memory space)
GPGPU-Sim PTX: allocating shared region for "_ZZ19splitRearrange_nvmgiiPjS_S_S_S_E7array_s" from 0x80 to 0x1080 (shared memory space)
GPGPU-Sim PTX: instruction assembly for function '_Z19splitRearrange_nvmgiiPjS_S_S_S_'...   done.
GPGPU-Sim PTX: allocating shared region for "_ZZ19splitRearrange_nvm3iiPjS_S_S_S_E7histo_s" from 0x0 to 0x40 (shared memory space)
GPGPU-Sim PTX: allocating shared region for "_ZZ19splitRearrange_nvm3iiPjS_S_S_S_E7array_s" from 0x80 to 0x1080 (shared memory space)
GPGPU-Sim PTX: instruction assembly for function '_Z19splitRearrange_nvm3iiPjS_S_S_S_'...   done.
GPGPU-Sim PTX: allocating shared region for "_ZZ19splitRearrange_nvm4iiPjS_S_S_S_E7histo_s" from 0x0 to 0x40 (shared memory space)
GPGPU-Sim PTX: allocating shared region for "_ZZ19splitRearrange_nvm4iiPjS_S_S_S_E7array_s" from 0x80 to 0x1080 (shared memory space)
GPGPU-Sim PTX: instruction assembly for function '_Z19splitRearrange_nvm4iiPjS_S_S_S_'...   done.
GPGPU-Sim PTX: allocating shared region for "_ZZ19splitRearrange_nvmiiiPjS_S_S_S_E7histo_s" from 0x0 to 0x40 (shared memory space)
GPGPU-Sim PTX: allocating shared region for "_ZZ19splitRearrange_nvmiiiPjS_S_S_S_E7array_s" from 0x80 to 0x1080 (shared memory space)
GPGPU-Sim PTX: instruction assembly for function '_Z19splitRearrange_nvmiiiPjS_S_S_S_'...   done.
GPGPU-Sim PTX: allocating shared region for "_ZZ19splitRearrange_nvm6iiPjS_S_S_S_E7histo_s" from 0x0 to 0x40 (shared memory space)
GPGPU-Sim PTX: allocating shared region for "_ZZ19splitRearrange_nvm6iiPjS_S_S_S_E7array_s" from 0x80 to 0x1080 (shared memory space)
GPGPU-Sim PTX: instruction assembly for function '_Z19splitRearrange_nvm6iiPjS_S_S_S_'...   done.
GPGPU-Sim PTX: allocating shared region for "_ZZ19splitRearrange_nvm5iiPjS_S_S_S_E7histo_s" from 0x0 to 0x40 (shared memory space)
GPGPU-Sim PTX: allocating shared region for "_ZZ19splitRearrange_nvm5iiPjS_S_S_S_E7array_s" from 0x80 to 0x1080 (shared memory space)
GPGPU-Sim PTX: instruction assembly for function '_Z19splitRearrange_nvm5iiPjS_S_S_S_'...   done.
GPGPU-Sim PTX: allocating shared region for "_ZZ14splitRearrangeiiPjS_S_S_S_E7histo_s" from 0x0 to 0x40 (shared memory space)
GPGPU-Sim PTX: allocating shared region for "_ZZ14splitRearrangeiiPjS_S_S_S_E7array_s" from 0x80 to 0x1080 (shared memory space)
GPGPU-Sim PTX: instruction assembly for function '_Z14splitRearrangeiiPjS_S_S_S_'...   done.
GPGPU-Sim PTX: finished parsing EMBEDDED .ptx file mri-gridding.4.sm_70.ptx
GPGPU-Sim PTX: loading globals with explicit initializers... 
GPGPU-Sim PTX: finished loading globals (0 bytes total).
GPGPU-Sim PTX: loading constants with explicit initializers...  done.
GPGPU-Sim PTX: Loading PTXInfo from mri-gridding.1.sm_70.ptx
GPGPU-Sim PTX: Loading PTXInfo from mri-gridding.2.sm_70.ptx
GPGPU-Sim PTX: Binary info : gmem=71303168, cmem=28
GPGPU-Sim PTX: Kernel '_Z17gridding_GPU_nvmbP20ReconstructionSamplePjP6float2Pff' : regs=40, lmem=0, smem=1536, cmem=388
GPGPU-Sim PTX: Kernel '_Z17gridding_GPU_nvmaP20ReconstructionSamplePjP6float2Pff' : regs=40, lmem=0, smem=1536, cmem=388
GPGPU-Sim PTX: Kernel '_Z12gridding_GPUP20ReconstructionSamplePjP6float2Pff' : regs=39, lmem=0, smem=1536, cmem=388
GPGPU-Sim PTX: Kernel '_Z19reorder_kernel_nvmiiPjP20ReconstructionSampleS1_' : regs=24, lmem=0, smem=0, cmem=384
GPGPU-Sim PTX: Kernel '_Z19reorder_kernel_nvmgiPjP20ReconstructionSampleS1_' : regs=24, lmem=0, smem=0, cmem=384
GPGPU-Sim PTX: Kernel '_Z19reorder_kernel_nvmdiPjP20ReconstructionSampleS1_' : regs=22, lmem=0, smem=0, cmem=384
GPGPU-Sim PTX: Kernel '_Z19reorder_kernel_nvmbiPjP20ReconstructionSampleS1_' : regs=22, lmem=0, smem=0, cmem=384
GPGPU-Sim PTX: Kernel '_Z19reorder_kernel_nvmaiPjP20ReconstructionSampleS1_' : regs=22, lmem=0, smem=0, cmem=384
GPGPU-Sim PTX: Kernel '_Z14reorder_kerneliPjP20ReconstructionSampleS1_' : regs=22, lmem=0, smem=0, cmem=384
GPGPU-Sim PTX: Kernel '_Z19binning_kernel_nvmdjP20ReconstructionSamplePjS1_S1_jj' : regs=16, lmem=0, smem=0, cmem=400
GPGPU-Sim PTX: Kernel '_Z19binning_kernel_nvmbjP20ReconstructionSamplePjS1_S1_jj' : regs=16, lmem=0, smem=0, cmem=400
GPGPU-Sim PTX: Kernel '_Z14binning_kerneljP20ReconstructionSamplePjS1_S1_jj' : regs=16, lmem=0, smem=0, cmem=400
GPGPU-Sim PTX: Loading PTXInfo from mri-gridding.3.sm_70.ptx
GPGPU-Sim PTX: Kernel '_Z10uniformAddjPjS_' : regs=8, lmem=0, smem=16, cmem=376
GPGPU-Sim PTX: Kernel '_Z18scan_inter2_kernelPjj' : regs=19, lmem=0, smem=0, cmem=364
GPGPU-Sim PTX: Kernel '_Z18scan_inter1_kernelPjj' : regs=20, lmem=0, smem=0, cmem=364
GPGPU-Sim PTX: Kernel '_Z14scan_L1_kerneljPjS_' : regs=22, lmem=0, smem=4368, cmem=376
GPGPU-Sim PTX: Loading PTXInfo from mri-gridding.4.sm_70.ptx
GPGPU-Sim PTX: Kernel '_Z14splitRearrangeiiPjS_S_S_S_' : regs=28, lmem=0, smem=4160, cmem=400
GPGPU-Sim PTX: Kernel '_Z19splitRearrange_nvm5iiPjS_S_S_S_' : regs=28, lmem=0, smem=4160, cmem=400
GPGPU-Sim PTX: Kernel '_Z19splitRearrange_nvm6iiPjS_S_S_S_' : regs=28, lmem=0, smem=4160, cmem=400
GPGPU-Sim PTX: Kernel '_Z19splitRearrange_nvmiiiPjS_S_S_S_' : regs=30, lmem=0, smem=4160, cmem=400
GPGPU-Sim PTX: Kernel '_Z19splitRearrange_nvm4iiPjS_S_S_S_' : regs=32, lmem=0, smem=4160, cmem=400
GPGPU-Sim PTX: Kernel '_Z19splitRearrange_nvm3iiPjS_S_S_S_' : regs=32, lmem=0, smem=4160, cmem=400
GPGPU-Sim PTX: Kernel '_Z19splitRearrange_nvmgiiPjS_S_S_S_' : regs=32, lmem=0, smem=4160, cmem=400
GPGPU-Sim PTX: Kernel '_Z14splitSort_nvm6iiPjS_S_' : regs=48, lmem=0, smem=4484, cmem=384
GPGPU-Sim PTX: Kernel '_Z14splitSort_nvm5iiPjS_S_' : regs=48, lmem=0, smem=4484, cmem=384
GPGPU-Sim PTX: Kernel '_Z14splitSort_nvmiiiPjS_S_' : regs=48, lmem=0, smem=4484, cmem=384
GPGPU-Sim PTX: Kernel '_Z14splitSort_nvm4iiPjS_S_' : regs=48, lmem=0, smem=4484, cmem=384
GPGPU-Sim PTX: Kernel '_Z14splitSort_nvm3iiPjS_S_' : regs=48, lmem=0, smem=4484, cmem=384
GPGPU-Sim PTX: Kernel '_Z14splitSort_nvmgiiPjS_S_' : regs=43, lmem=0, smem=4484, cmem=384
GPGPU-Sim PTX: Kernel '_Z19splitRearrange_nvm2iiPjS_S_S_S_' : regs=30, lmem=0, smem=4160, cmem=400
GPGPU-Sim PTX: Kernel '_Z19splitRearrange_nvm1iiPjS_S_S_S_' : regs=30, lmem=0, smem=4160, cmem=400
GPGPU-Sim PTX: Kernel '_Z19splitRearrange_nvmwiiPjS_S_S_S_' : regs=28, lmem=0, smem=4160, cmem=400
GPGPU-Sim PTX: Kernel '_Z19splitRearrange_nvmuiiPjS_S_S_S_' : regs=26, lmem=0, smem=4160, cmem=400
GPGPU-Sim PTX: Kernel '_Z19splitRearrange_nvmqiiPjS_S_S_S_' : regs=28, lmem=0, smem=4160, cmem=400
GPGPU-Sim PTX: Kernel '_Z19splitRearrange_nvmoiiPjS_S_S_S_' : regs=26, lmem=0, smem=4160, cmem=400
GPGPU-Sim PTX: Kernel '_Z19splitRearrange_nvmdiiPjS_S_S_S_' : regs=28, lmem=0, smem=4160, cmem=400
GPGPU-Sim PTX: Kernel '_Z19splitRearrange_nvmbiiPjS_S_S_S_' : regs=26, lmem=0, smem=4160, cmem=400
GPGPU-Sim PTX: Kernel '_Z14splitSort_nvmdiiPjS_S_' : regs=43, lmem=0, smem=4484, cmem=384
GPGPU-Sim PTX: Kernel '_Z14splitSort_nvmbiiPjS_S_' : regs=43, lmem=0, smem=4484, cmem=384
GPGPU-Sim PTX: Kernel '_Z14splitSort_nvm2iiPjS_S_' : regs=43, lmem=0, smem=4484, cmem=384
GPGPU-Sim PTX: Kernel '_Z14splitSort_nvm1iiPjS_S_' : regs=43, lmem=0, smem=4484, cmem=384
GPGPU-Sim PTX: Kernel '_Z14splitSort_nvmwiiPjS_S_' : regs=43, lmem=0, smem=4484, cmem=384
GPGPU-Sim PTX: Kernel '_Z14splitSort_nvmuiiPjS_S_' : regs=43, lmem=0, smem=4484, cmem=384
GPGPU-Sim PTX: Kernel '_Z14splitSort_nvmqiiPjS_S_' : regs=43, lmem=0, smem=4484, cmem=384
GPGPU-Sim PTX: Kernel '_Z14splitSort_nvmoiiPjS_S_' : regs=43, lmem=0, smem=4484, cmem=384
GPGPU-Sim PTX: Kernel '_Z9splitSortiiPjS_S_' : regs=43, lmem=0, smem=4484, cmem=384
GPGPU-Sim PTX: __cudaRegisterFunction _Z17gridding_GPU_nvmaP20ReconstructionSamplePjP6float2Pff : hostFun 0x0x404aee, fat_cubin_handle = 2
GPGPU-Sim PTX: __cudaRegisterFunction _Z12gridding_GPUP20ReconstructionSamplePjP6float2Pff : hostFun 0x0x404948, fat_cubin_handle = 2
GPGPU-Sim PTX: __cudaRegisterFunction _Z19reorder_kernel_nvmiiPjP20ReconstructionSampleS1_ : hostFun 0x0x4047b2, fat_cubin_handle = 2
GPGPU-Sim PTX: __cudaRegisterFunction _Z19reorder_kernel_nvmgiPjP20ReconstructionSampleS1_ : hostFun 0x0x40463d, fat_cubin_handle = 2
GPGPU-Sim PTX: __cudaRegisterFunction _Z19reorder_kernel_nvmdiPjP20ReconstructionSampleS1_ : hostFun 0x0x4044c8, fat_cubin_handle = 2
GPGPU-Sim PTX: __cudaRegisterFunction _Z19reorder_kernel_nvmbiPjP20ReconstructionSampleS1_ : hostFun 0x0x404353, fat_cubin_handle = 2
GPGPU-Sim PTX: __cudaRegisterFunction _Z19reorder_kernel_nvmaiPjP20ReconstructionSampleS1_ : hostFun 0x0x4041de, fat_cubin_handle = 2
GPGPU-Sim PTX: __cudaRegisterFunction _Z14reorder_kerneliPjP20ReconstructionSampleS1_ : hostFun 0x0x404069, fat_cubin_handle = 2
GPGPU-Sim PTX: __cudaRegisterFunction _Z19binning_kernel_nvmdjP20ReconstructionSamplePjS1_S1_jj : hostFun 0x0x403ede, fat_cubin_handle = 2
GPGPU-Sim PTX: __cudaRegisterFunction _Z19binning_kernel_nvmbjP20ReconstructionSamplePjS1_S1_jj : hostFun 0x0x403ce5, fat_cubin_handle = 2
GPGPU-Sim PTX: __cudaRegisterFunction _Z14binning_kerneljP20ReconstructionSamplePjS1_S1_jj : hostFun 0x0x403aec, fat_cubin_handle = 2
GPGPU-Sim PTX: __cudaRegisterVar: hostVar = 0x61c470; deviceAddress = cutoff2_c; deviceName = cutoff2_c
GPGPU-Sim PTX: __cudaRegisterVar: Registering const memory space of 4 bytes
GPGPU-Sim PTX registering constant cutoff2_c (4 bytes) to name mapping
GPGPU-Sim PTX: __cudaRegisterVar: hostVar = 0x61c474; deviceAddress = cutoff_c; deviceName = cutoff_c
GPGPU-Sim PTX: __cudaRegisterVar: Registering const memory space of 4 bytes
GPGPU-Sim PTX registering constant cutoff_c (4 bytes) to name mapping
GPGPU-Sim PTX: __cudaRegisterVar: hostVar = 0x61c478; deviceAddress = gridSize_c; deviceName = gridSize_c
GPGPU-Sim PTX: __cudaRegisterVar: Registering const memory space of 12 bytes
GPGPU-Sim PTX registering constant gridSize_c (12 bytes) to name mapping
GPGPU-Sim PTX: __cudaRegisterVar: hostVar = 0x61c484; deviceAddress = size_xy_c; deviceName = size_xy_c
GPGPU-Sim PTX: __cudaRegisterVar: Registering const memory space of 4 bytes
GPGPU-Sim PTX registering constant size_xy_c (4 bytes) to name mapping
GPGPU-Sim PTX: __cudaRegisterVar: hostVar = 0x61c488; deviceAddress = _1overCutoff2_c; deviceName = _1overCutoff2_c
GPGPU-Sim PTX: __cudaRegisterVar: Registering const memory space of 4 bytes
GPGPU-Sim PTX registering constant _1overCutoff2_c (4 bytes) to name mapping
GPGPU-Sim PTX: __cudaRegisterVar: hostVar = 0x61c4a0; deviceAddress = NVM_log; deviceName = NVM_log
GPGPU-Sim PTX: __cudaRegisterVar: Registering const memory space of 67108864 bytes
GPGPU-Sim PTX registering global NVM_log hostVar to name mapping
GPGPU-Sim PTX: __cudaRegisterVar: hostVar = 0x461c4a0; deviceAddress = NVM_flag; deviceName = NVM_flag
GPGPU-Sim PTX: __cudaRegisterVar: Registering const memory space of 4194304 bytes
GPGPU-Sim PTX registering global NVM_flag hostVar to name mapping
self exe links to: /home/pli11/Videos/parboil_benchmark/parboil/benchmarks/mri-gridding/build/nvm_ssort_default/mri-gridding
self exe links to: /home/pli11/Videos/parboil_benchmark/parboil/benchmarks/mri-gridding/build/nvm_ssort_default/mri-gridding
10.1
GPGPU-Sim PTX: __cudaRegisterFatBinary, fat_cubin_handle = 3, filename=default
GPGPU-Sim PTX: __cudaRegisterFunction _Z10uniformAddjPjS_ : hostFun 0x0x405ec1, fat_cubin_handle = 3
GPGPU-Sim PTX: __cudaRegisterFunction _Z18scan_inter2_kernelPjj : hostFun 0x0x405d6f, fat_cubin_handle = 3
GPGPU-Sim PTX: __cudaRegisterFunction _Z18scan_inter1_kernelPjj : hostFun 0x0x405c33, fat_cubin_handle = 3
GPGPU-Sim PTX: __cudaRegisterFunction _Z14scan_L1_kerneljPjS_ : hostFun 0x0x405aef, fat_cubin_handle = 3
self exe links to: /home/pli11/Videos/parboil_benchmark/parboil/benchmarks/mri-gridding/build/nvm_ssort_default/mri-gridding
self exe links to: /home/pli11/Videos/parboil_benchmark/parboil/benchmarks/mri-gridding/build/nvm_ssort_default/mri-gridding
10.1
GPGPU-Sim PTX: __cudaRegisterFatBinary, fat_cubin_handle = 4, filename=default
GPGPU-Sim PTX: __cudaRegisterFunction _Z14splitRearrangeiiPjS_S_S_S_ : hostFun 0x0x40a3f5, fat_cubin_handle = 4
GPGPU-Sim PTX: __cudaRegisterFunction _Z19splitRearrange_nvm5iiPjS_S_S_S_ : hostFun 0x0x40a1fd, fat_cubin_handle = 4
GPGPU-Sim PTX: __cudaRegisterFunction _Z19splitRearrange_nvm6iiPjS_S_S_S_ : hostFun 0x0x40a005, fat_cubin_handle = 4
GPGPU-Sim PTX: __cudaRegisterFunction _Z19splitRearrange_nvmiiiPjS_S_S_S_ : hostFun 0x0x409e0d, fat_cubin_handle = 4
GPGPU-Sim PTX: __cudaRegisterFunction _Z19splitRearrange_nvm4iiPjS_S_S_S_ : hostFun 0x0x409c15, fat_cubin_handle = 4
GPGPU-Sim PTX: __cudaRegisterFunction _Z19splitRearrange_nvm3iiPjS_S_S_S_ : hostFun 0x0x409a1d, fat_cubin_handle = 4
GPGPU-Sim PTX: __cudaRegisterFunction _Z19splitRearrange_nvmgiiPjS_S_S_S_ : hostFun 0x0x409825, fat_cubin_handle = 4
GPGPU-Sim PTX: __cudaRegisterFunction _Z14splitSort_nvm6iiPjS_S_ : hostFun 0x0x40963a, fat_cubin_handle = 4
GPGPU-Sim PTX: __cudaRegisterFunction _Z14splitSort_nvm5iiPjS_S_ : hostFun 0x0x4094a4, fat_cubin_handle = 4
GPGPU-Sim PTX: __cudaRegisterFunction _Z14splitSort_nvmiiiPjS_S_ : hostFun 0x0x40930e, fat_cubin_handle = 4
GPGPU-Sim PTX: __cudaRegisterFunction _Z14splitSort_nvm4iiPjS_S_ : hostFun 0x0x409178, fat_cubin_handle = 4
GPGPU-Sim PTX: __cudaRegisterFunction _Z14splitSort_nvm3iiPjS_S_ : hostFun 0x0x408fe2, fat_cubin_handle = 4
GPGPU-Sim PTX: __cudaRegisterFunction _Z14splitSort_nvmgiiPjS_S_ : hostFun 0x0x408e4c, fat_cubin_handle = 4
GPGPU-Sim PTX: __cudaRegisterFunction _Z19splitRearrange_nvm2iiPjS_S_S_S_ : hostFun 0x0x408ca9, fat_cubin_handle = 4
GPGPU-Sim PTX: __cudaRegisterFunction _Z19splitRearrange_nvm1iiPjS_S_S_S_ : hostFun 0x0x408ab1, fat_cubin_handle = 4
GPGPU-Sim PTX: __cudaRegisterFunction _Z19splitRearrange_nvmwiiPjS_S_S_S_ : hostFun 0x0x4088b9, fat_cubin_handle = 4
GPGPU-Sim PTX: __cudaRegisterFunction _Z19splitRearrange_nvmuiiPjS_S_S_S_ : hostFun 0x0x4086c1, fat_cubin_handle = 4
GPGPU-Sim PTX: __cudaRegisterFunction _Z19splitRearrange_nvmqiiPjS_S_S_S_ : hostFun 0x0x4084c9, fat_cubin_handle = 4
GPGPU-Sim PTX: __cudaRegisterFunction _Z19splitRearrange_nvmoiiPjS_S_S_S_ : hostFun 0x0x4082d1, fat_cubin_handle = 4
GPGPU-Sim PTX: __cudaRegisterFunction _Z19splitRearrange_nvmdiiPjS_S_S_S_ : hostFun 0x0x4080d9, fat_cubin_handle = 4
GPGPU-Sim PTX: __cudaRegisterFunction _Z19splitRearrange_nvmbiiPjS_S_S_S_ : hostFun 0x0x407ee1, fat_cubin_handle = 4
GPGPU-Sim PTX: __cudaRegisterFunction _Z14splitSort_nvmdiiPjS_S_ : hostFun 0x0x407cf6, fat_cubin_handle = 4
GPGPU-Sim PTX: __cudaRegisterFunction _Z14splitSort_nvmbiiPjS_S_ : hostFun 0x0x407b60, fat_cubin_handle = 4
GPGPU-Sim PTX: __cudaRegisterFunction _Z14splitSort_nvm2iiPjS_S_ : hostFun 0x0x4079ca, fat_cubin_handle = 4
GPGPU-Sim PTX: __cudaRegisterFunction _Z14splitSort_nvm1iiPjS_S_ : hostFun 0x0x407834, fat_cubin_handle = 4
GPGPU-Sim PTX: __cudaRegisterFunction _Z14splitSort_nvmwiiPjS_S_ : hostFun 0x0x40769e, fat_cubin_handle = 4
GPGPU-Sim PTX: __cudaRegisterFunction _Z14splitSort_nvmuiiPjS_S_ : hostFun 0x0x407508, fat_cubin_handle = 4
GPGPU-Sim PTX: __cudaRegisterFunction _Z14splitSort_nvmqiiPjS_S_ : hostFun 0x0x407372, fat_cubin_handle = 4
GPGPU-Sim PTX: __cudaRegisterFunction _Z14splitSort_nvmoiiPjS_S_ : hostFun 0x0x4071dc, fat_cubin_handle = 4
GPGPU-Sim PTX: __cudaRegisterFunction _Z9splitSortiiPjS_S_ : hostFun 0x0x407046, fat_cubin_handle = 4
GPGPU-Sim PTX: __cudaRegisterVar: hostVar = 0x4a1c580; deviceAddress = NVM_log1; deviceName = NVM_log1
GPGPU-Sim PTX: __cudaRegisterVar: Registering const memory space of 67108864 bytes
GPGPU-Sim PTX registering global NVM_log1 hostVar to name mapping
GPGPU-Sim PTX: __cudaRegisterVar: hostVar = 0x8a1c580; deviceAddress = NVM_log2; deviceName = NVM_log2
GPGPU-Sim PTX: __cudaRegisterVar: Registering const memory space of 67108864 bytes
GPGPU-Sim PTX registering global NVM_log2 hostVar to name mapping
GPGPU-Sim PTX: __cudaRegisterVar: hostVar = 0xca1c580; deviceAddress = NVM_log3; deviceName = NVM_log3
GPGPU-Sim PTX: __cudaRegisterVar: Registering const memory space of 67108864 bytes
GPGPU-Sim PTX registering global NVM_log3 hostVar to name mapping
GPGPU-Sim PTX: __cudaRegisterVar: hostVar = 0x10a1c580; deviceAddress = NVM_flag; deviceName = NVM_flag
GPGPU-Sim PTX: __cudaRegisterVar: Registering const memory space of 4194304 bytes
GPGPU-Sim PTX registering global NVM_flag hostVar to name mapping

Reading parameters
  Total amount of GPU memory: 2147483648 bytes
  Number of samples = 2655910
  Grid Size = 256x256x256
  Input Matrix Size = 60x60x60
  Recon Matrix Size = 60x60x60
  Kernel Width = 5.000000
  KMax = 150.00 150.00 150.00
  Oversampling = 5.000000
  GPU Binsize = 32
  Use LUT = Yes
Reading input data from files
Generating Look-Up Table
Running gold version
Running CUDA version
GPGPU-Sim PTX: cudaMemcpyToSymbol: symbol = 0x61c470
GPGPU-Sim PTX: starting gpgpu_ptx_sim_memcpy_symbol with hostVar 0x0x61c470
GPGPU-Sim PTX: gpgpu_ptx_sim_memcpy_symbol: Found PTX symbol w/ hostVar=0x61c470
GPGPU-Sim PTX: gpgpu_ptx_sim_memcpy_symbol: copying const memory 4 bytes  to  symbol cutoff2_c+0 @0x100 ...
GPGPU-Sim PTX: cudaMemcpyToSymbol: symbol = 0x61c474
GPGPU-Sim PTX: starting gpgpu_ptx_sim_memcpy_symbol with hostVar 0x0x61c474
GPGPU-Sim PTX: gpgpu_ptx_sim_memcpy_symbol: Found PTX symbol w/ hostVar=0x61c474
GPGPU-Sim PTX: gpgpu_ptx_sim_memcpy_symbol: copying const memory 4 bytes  to  symbol cutoff_c+0 @0x104 ...
GPGPU-Sim PTX: cudaMemcpyToSymbol: symbol = 0x61c478
GPGPU-Sim PTX: starting gpgpu_ptx_sim_memcpy_symbol with hostVar 0x0x61c478
GPGPU-Sim PTX: gpgpu_ptx_sim_memcpy_symbol: Found PTX symbol w/ hostVar=0x61c478
GPGPU-Sim PTX: gpgpu_ptx_sim_memcpy_symbol: copying const memory 12 bytes  to  symbol gridSize_c+0 @0x180 ...
GPGPU-Sim PTX: cudaMemcpyToSymbol: symbol = 0x61c484
GPGPU-Sim PTX: starting gpgpu_ptx_sim_memcpy_symbol with hostVar 0x0x61c484
GPGPU-Sim PTX: gpgpu_ptx_sim_memcpy_symbol: Found PTX symbol w/ hostVar=0x61c484
GPGPU-Sim PTX: gpgpu_ptx_sim_memcpy_symbol: copying const memory 4 bytes  to  symbol size_xy_c+0 @0x18c ...
GPGPU-Sim PTX: cudaMemcpyToSymbol: symbol = 0x61c488
GPGPU-Sim PTX: starting gpgpu_ptx_sim_memcpy_symbol with hostVar 0x0x61c488
GPGPU-Sim PTX: gpgpu_ptx_sim_memcpy_symbol: Found PTX symbol w/ hostVar=0x61c488
GPGPU-Sim PTX: gpgpu_ptx_sim_memcpy_symbol: copying const memory 4 bytes  to  symbol _1overCutoff2_c+0 @0x190 ...
event update
GPGPU-Sim: synchronize waiting for inactive GPU simulation
GPGPU-Sim API: Stream Manager State
GPGPU-Sim: detected inactive GPU simulation thread
GPGPU-Sim: synchronize waiting for inactive GPU simulation
GPGPU-Sim API: Stream Manager State
GPGPU-Sim: detected inactive GPU simulation thread
GPGPU-Sim: synchronize waiting for inactive GPU simulation
GPGPU-Sim API: Stream Manager State
GPGPU-Sim: detected inactive GPU simulation thread
GPGPU-Sim PTX: Setting up arguments for 4 bytes starting at 0x7ffe8dc66fbc..
GPGPU-Sim PTX: Setting up arguments for 4 bytes starting at 0x7ffe8dc66fb8..
GPGPU-Sim PTX: Setting up arguments for 8 bytes starting at 0x7ffe8dc66fb0..
GPGPU-Sim PTX: Setting up arguments for 8 bytes starting at 0x7ffe8dc66fa8..
GPGPU-Sim PTX: Setting up arguments for 8 bytes starting at 0x7ffe8dc66fa0..

GPGPU-Sim PTX: cudaLaunch for 0x0x408fe2 (mode=performance simulation) on stream 0
GPGPU-Sim PTX: finding reconvergence points for '_Z14splitSort_nvm3iiPjS_S_'...
GPGPU-Sim PTX: Finding dominators for '_Z14splitSort_nvm3iiPjS_S_'...
GPGPU-Sim PTX: Finding immediate dominators for '_Z14splitSort_nvm3iiPjS_S_'...
GPGPU-Sim PTX: Finding postdominators for '_Z14splitSort_nvm3iiPjS_S_'...
GPGPU-Sim PTX: Finding immediate postdominators for '_Z14splitSort_nvm3iiPjS_S_'...
GPGPU-Sim PTX: pre-decoding instructions for '_Z14splitSort_nvm3iiPjS_S_'...
GPGPU-Sim PTX: reconvergence points for _Z14splitSort_nvm3iiPjS_S_...
GPGPU-Sim PTX:  1 (potential) branch divergence @  PC=0xe0b0 (mri-gridding.4.sm_70.ptx:6029) @%p2 bra BB18_2;
GPGPU-Sim PTX:    immediate post dominator      @  PC=0xe0e0 (mri-gridding.4.sm_70.ptx:6038) shl.b32 %r86, %r3, 2;
GPGPU-Sim PTX:  2 (potential) branch divergence @  PC=0xe100 (mri-gridding.4.sm_70.ptx:6042) @%p3 bra BB18_4;
GPGPU-Sim PTX:    immediate post dominator      @  PC=0xe118 (mri-gridding.4.sm_70.ptx:6048) bar.sync 0;
GPGPU-Sim PTX:  3 (potential) branch divergence @  PC=0xe5b0 (mri-gridding.4.sm_70.ptx:6197) @%p4 bra BB18_9;
GPGPU-Sim PTX:    immediate post dominator      @  PC=0xe6a0 (mri-gridding.4.sm_70.ptx:6234) setp.ne.s32%p7, %r3, 0;
GPGPU-Sim PTX:  4 (potential) branch divergence @  PC=0xe5c8 (mri-gridding.4.sm_70.ptx:6202) @%p5 bra BB18_8;
GPGPU-Sim PTX:    immediate post dominator      @  PC=0xe680 (mri-gridding.4.sm_70.ptx:6228) shl.b32 %r361, %r361, 1;
GPGPU-Sim PTX:  5 (potential) branch divergence @  PC=0xe698 (mri-gridding.4.sm_70.ptx:6231) @%p6 bra BB18_6;
GPGPU-Sim PTX:    immediate post dominator      @  PC=0xe6a0 (mri-gridding.4.sm_70.ptx:6234) setp.ne.s32%p7, %r3, 0;
GPGPU-Sim PTX:  6 (potential) branch divergence @  PC=0xe6a8 (mri-gridding.4.sm_70.ptx:6235) @%p7 bra BB18_11;
GPGPU-Sim PTX:    immediate post dominator      @  PC=0xe6e0 (mri-gridding.4.sm_70.ptx:6245) mov.u32 %r362, %r90;
GPGPU-Sim PTX:  7 (potential) branch divergence @  PC=0xe6e8 (mri-gridding.4.sm_70.ptx:6246) @%p4 bra BB18_15;
GPGPU-Sim PTX:    immediate post dominator      @  PC=0xe7e8 (mri-gridding.4.sm_70.ptx:6285) bar.sync 0;
GPGPU-Sim PTX:  8 (potential) branch divergence @  PC=0xe708 (mri-gridding.4.sm_70.ptx:6252) @%p9 bra BB18_14;
GPGPU-Sim PTX:    immediate post dominator      @  PC=0xe7d0 (mri-gridding.4.sm_70.ptx:6280) shl.b32 %r362, %r362, 1;
GPGPU-Sim PTX:  9 (potential) branch divergence @  PC=0xe7e0 (mri-gridding.4.sm_70.ptx:6282) @%p10 bra BB18_12;
GPGPU-Sim PTX:    immediate post dominator      @  PC=0xe7e8 (mri-gridding.4.sm_70.ptx:6285) bar.sync 0;
GPGPU-Sim PTX: 10 (potential) branch divergence @  PC=0xe968 (mri-gridding.4.sm_70.ptx:6333) @%p15 bra BB18_5;
GPGPU-Sim PTX:    immediate post dominator      @  PC=0xe970 (mri-gridding.4.sm_70.ptx:6335) @%p2 bra BB18_18;
GPGPU-Sim PTX: 11 (potential) branch divergence @  PC=0xe970 (mri-gridding.4.sm_70.ptx:6335) @%p2 bra BB18_18;
GPGPU-Sim PTX:    immediate post dominator      @  PC=0xeb18 (mri-gridding.4.sm_70.ptx:6423) @%p3 bra BB18_20;
GPGPU-Sim PTX: 12 (potential) branch divergence @  PC=0xeb18 (mri-gridding.4.sm_70.ptx:6423) @%p3 bra BB18_20;
GPGPU-Sim PTX:    immediate post dominator      @  PC=0xeb78 (mri-gridding.4.sm_70.ptx:6443) membar.gl;
GPGPU-Sim PTX: 13 (potential) branch divergence @  PC=0xebc8 (mri-gridding.4.sm_70.ptx:6454) @%p18 bra BB18_22;
GPGPU-Sim PTX:    immediate post dominator      @  PC=0xec48 (mri-gridding.4.sm_70.ptx:6479) @%p2 bra BB18_24;
GPGPU-Sim PTX: 14 (potential) branch divergence @  PC=0xec48 (mri-gridding.4.sm_70.ptx:6479) @%p2 bra BB18_24;
GPGPU-Sim PTX:    immediate post dominator      @  PC=0xed10 (mri-gridding.4.sm_70.ptx:6507) mov.u32 %r69, %nctaid.x;
GPGPU-Sim PTX: 15 (potential) branch divergence @  PC=0xed20 (mri-gridding.4.sm_70.ptx:6509) @%p3 bra BB18_26;
GPGPU-Sim PTX:    immediate post dominator      @  PC=0xed48 (mri-gridding.4.sm_70.ptx:6517) setp.eq.s32%p1, %r67, %r68;
GPGPU-Sim PTX: 16 (potential) branch divergence @  PC=0xee40 (mri-gridding.4.sm_70.ptx:6568) @!%p1 bra BB18_28;
GPGPU-Sim PTX:    immediate post dominator      @  PC=0xeeb8 (mri-gridding.4.sm_70.ptx:6593) ret;
GPGPU-Sim PTX: 17 (potential) branch divergence @  PC=0xee48 (mri-gridding.4.sm_70.ptx:6569) bra.uni BB18_27;
GPGPU-Sim PTX:    immediate post dominator      @  PC=0xee50 (mri-gridding.4.sm_70.ptx:6572) mov.u32 %r330, %ctaid.y;
GPGPU-Sim PTX: ... end of reconvergence points for _Z14splitSort_nvm3iiPjS_S_
GPGPU-Sim PTX: ... done pre-decoding instructions for '_Z14splitSort_nvm3iiPjS_S_'.
GPGPU-Sim PTX: pushing kernel '_Z14splitSort_nvm3iiPjS_S_' to stream 0, gridDim= (2594,1,1) blockDim = (256,1,1) 
GPGPU-Sim uArch: Shader 0 bind to kernel 1 '_Z14splitSort_nvm3iiPjS_S_'
GPGPU-Sim uArch: CTA/core = 5, limited by: regs
GPGPU-Sim: Reconfigure L1 cache to 96KB
GPGPU-Sim uArch: Shader 1 bind to kernel 1 '_Z14splitSort_nvm3iiPjS_S_'
GPGPU-Sim uArch: Shader 2 bind to kernel 1 '_Z14splitSort_nvm3iiPjS_S_'
GPGPU-Sim uArch: Shader 3 bind to kernel 1 '_Z14splitSort_nvm3iiPjS_S_'
GPGPU-Sim uArch: Shader 4 bind to kernel 1 '_Z14splitSort_nvm3iiPjS_S_'
GPGPU-Sim uArch: Shader 5 bind to kernel 1 '_Z14splitSort_nvm3iiPjS_S_'
GPGPU-Sim uArch: Shader 6 bind to kernel 1 '_Z14splitSort_nvm3iiPjS_S_'
GPGPU-Sim uArch: Shader 7 bind to kernel 1 '_Z14splitSort_nvm3iiPjS_S_'
GPGPU-Sim uArch: Shader 8 bind to kernel 1 '_Z14splitSort_nvm3iiPjS_S_'
GPGPU-Sim uArch: Shader 9 bind to kernel 1 '_Z14splitSort_nvm3iiPjS_S_'
GPGPU-Sim uArch: Shader 10 bind to kernel 1 '_Z14splitSort_nvm3iiPjS_S_'
GPGPU-Sim uArch: Shader 11 bind to kernel 1 '_Z14splitSort_nvm3iiPjS_S_'
GPGPU-Sim uArch: Shader 12 bind to kernel 1 '_Z14splitSort_nvm3iiPjS_S_'
GPGPU-Sim uArch: Shader 13 bind to kernel 1 '_Z14splitSort_nvm3iiPjS_S_'
GPGPU-Sim uArch: Shader 14 bind to kernel 1 '_Z14splitSort_nvm3iiPjS_S_'
GPGPU-Sim uArch: Shader 15 bind to kernel 1 '_Z14splitSort_nvm3iiPjS_S_'
GPGPU-Sim uArch: Shader 16 bind to kernel 1 '_Z14splitSort_nvm3iiPjS_S_'
GPGPU-Sim uArch: Shader 17 bind to kernel 1 '_Z14splitSort_nvm3iiPjS_S_'
GPGPU-Sim uArch: Shader 18 bind to kernel 1 '_Z14splitSort_nvm3iiPjS_S_'
GPGPU-Sim uArch: Shader 19 bind to kernel 1 '_Z14splitSort_nvm3iiPjS_S_'
GPGPU-Sim uArch: Shader 20 bind to kernel 1 '_Z14splitSort_nvm3iiPjS_S_'
GPGPU-Sim uArch: Shader 21 bind to kernel 1 '_Z14splitSort_nvm3iiPjS_S_'
GPGPU-Sim uArch: Shader 22 bind to kernel 1 '_Z14splitSort_nvm3iiPjS_S_'
GPGPU-Sim uArch: Shader 23 bind to kernel 1 '_Z14splitSort_nvm3iiPjS_S_'
GPGPU-Sim uArch: Shader 24 bind to kernel 1 '_Z14splitSort_nvm3iiPjS_S_'
GPGPU-Sim uArch: Shader 25 bind to kernel 1 '_Z14splitSort_nvm3iiPjS_S_'
GPGPU-Sim uArch: Shader 26 bind to kernel 1 '_Z14splitSort_nvm3iiPjS_S_'
GPGPU-Sim uArch: Shader 27 bind to kernel 1 '_Z14splitSort_nvm3iiPjS_S_'
GPGPU-Sim uArch: Shader 28 bind to kernel 1 '_Z14splitSort_nvm3iiPjS_S_'
GPGPU-Sim uArch: Shader 29 bind to kernel 1 '_Z14splitSort_nvm3iiPjS_S_'
GPGPU-Sim uArch: Shader 30 bind to kernel 1 '_Z14splitSort_nvm3iiPjS_S_'
GPGPU-Sim uArch: Shader 31 bind to kernel 1 '_Z14splitSort_nvm3iiPjS_S_'
GPGPU-Sim uArch: Shader 32 bind to kernel 1 '_Z14splitSort_nvm3iiPjS_S_'
GPGPU-Sim uArch: Shader 33 bind to kernel 1 '_Z14splitSort_nvm3iiPjS_S_'
GPGPU-Sim uArch: Shader 34 bind to kernel 1 '_Z14splitSort_nvm3iiPjS_S_'
GPGPU-Sim uArch: Shader 35 bind to kernel 1 '_Z14splitSort_nvm3iiPjS_S_'
GPGPU-Sim uArch: Shader 36 bind to kernel 1 '_Z14splitSort_nvm3iiPjS_S_'
GPGPU-Sim uArch: Shader 37 bind to kernel 1 '_Z14splitSort_nvm3iiPjS_S_'
GPGPU-Sim uArch: Shader 38 bind to kernel 1 '_Z14splitSort_nvm3iiPjS_S_'
GPGPU-Sim uArch: Shader 39 bind to kernel 1 '_Z14splitSort_nvm3iiPjS_S_'
GPGPU-Sim uArch: Shader 40 bind to kernel 1 '_Z14splitSort_nvm3iiPjS_S_'
GPGPU-Sim uArch: Shader 41 bind to kernel 1 '_Z14splitSort_nvm3iiPjS_S_'
GPGPU-Sim uArch: Shader 42 bind to kernel 1 '_Z14splitSort_nvm3iiPjS_S_'
GPGPU-Sim uArch: Shader 43 bind to kernel 1 '_Z14splitSort_nvm3iiPjS_S_'
GPGPU-Sim uArch: Shader 44 bind to kernel 1 '_Z14splitSort_nvm3iiPjS_S_'
GPGPU-Sim uArch: Shader 45 bind to kernel 1 '_Z14splitSort_nvm3iiPjS_S_'
GPGPU-Sim uArch: Shader 46 bind to kernel 1 '_Z14splitSort_nvm3iiPjS_S_'
GPGPU-Sim uArch: Shader 47 bind to kernel 1 '_Z14splitSort_nvm3iiPjS_S_'
GPGPU-Sim uArch: Shader 48 bind to kernel 1 '_Z14splitSort_nvm3iiPjS_S_'
GPGPU-Sim uArch: Shader 49 bind to kernel 1 '_Z14splitSort_nvm3iiPjS_S_'
GPGPU-Sim uArch: Shader 50 bind to kernel 1 '_Z14splitSort_nvm3iiPjS_S_'
GPGPU-Sim uArch: Shader 51 bind to kernel 1 '_Z14splitSort_nvm3iiPjS_S_'
GPGPU-Sim uArch: Shader 52 bind to kernel 1 '_Z14splitSort_nvm3iiPjS_S_'
GPGPU-Sim uArch: Shader 53 bind to kernel 1 '_Z14splitSort_nvm3iiPjS_S_'
GPGPU-Sim uArch: Shader 54 bind to kernel 1 '_Z14splitSort_nvm3iiPjS_S_'
GPGPU-Sim uArch: Shader 55 bind to kernel 1 '_Z14splitSort_nvm3iiPjS_S_'
GPGPU-Sim uArch: Shader 56 bind to kernel 1 '_Z14splitSort_nvm3iiPjS_S_'
GPGPU-Sim uArch: Shader 57 bind to kernel 1 '_Z14splitSort_nvm3iiPjS_S_'
GPGPU-Sim uArch: Shader 58 bind to kernel 1 '_Z14splitSort_nvm3iiPjS_S_'
GPGPU-Sim uArch: Shader 59 bind to kernel 1 '_Z14splitSort_nvm3iiPjS_S_'
GPGPU-Sim uArch: Shader 60 bind to kernel 1 '_Z14splitSort_nvm3iiPjS_S_'
GPGPU-Sim uArch: Shader 61 bind to kernel 1 '_Z14splitSort_nvm3iiPjS_S_'
GPGPU-Sim uArch: Shader 62 bind to kernel 1 '_Z14splitSort_nvm3iiPjS_S_'
GPGPU-Sim uArch: Shader 63 bind to kernel 1 '_Z14splitSort_nvm3iiPjS_S_'
GPGPU-Sim uArch: Shader 64 bind to kernel 1 '_Z14splitSort_nvm3iiPjS_S_'
GPGPU-Sim uArch: Shader 65 bind to kernel 1 '_Z14splitSort_nvm3iiPjS_S_'
GPGPU-Sim uArch: Shader 66 bind to kernel 1 '_Z14splitSort_nvm3iiPjS_S_'
GPGPU-Sim uArch: Shader 67 bind to kernel 1 '_Z14splitSort_nvm3iiPjS_S_'
GPGPU-Sim uArch: Shader 68 bind to kernel 1 '_Z14splitSort_nvm3iiPjS_S_'
GPGPU-Sim uArch: Shader 69 bind to kernel 1 '_Z14splitSort_nvm3iiPjS_S_'
GPGPU-Sim uArch: Shader 70 bind to kernel 1 '_Z14splitSort_nvm3iiPjS_S_'
GPGPU-Sim uArch: Shader 71 bind to kernel 1 '_Z14splitSort_nvm3iiPjS_S_'
GPGPU-Sim uArch: Shader 72 bind to kernel 1 '_Z14splitSort_nvm3iiPjS_S_'
GPGPU-Sim uArch: Shader 73 bind to kernel 1 '_Z14splitSort_nvm3iiPjS_S_'
GPGPU-Sim uArch: Shader 74 bind to kernel 1 '_Z14splitSort_nvm3iiPjS_S_'
GPGPU-Sim uArch: Shader 75 bind to kernel 1 '_Z14splitSort_nvm3iiPjS_S_'
GPGPU-Sim uArch: Shader 76 bind to kernel 1 '_Z14splitSort_nvm3iiPjS_S_'
GPGPU-Sim uArch: Shader 77 bind to kernel 1 '_Z14splitSort_nvm3iiPjS_S_'
GPGPU-Sim uArch: Shader 78 bind to kernel 1 '_Z14splitSort_nvm3iiPjS_S_'
GPGPU-Sim uArch: Shader 79 bind to kernel 1 '_Z14splitSort_nvm3iiPjS_S_'
Destroy streams for kernel 1: size 0
kernel_name = _Z14splitSort_nvm3iiPjS_S_ 
kernel_launch_uid = 1 
gpu_sim_cycle = 511895
gpu_sim_insn = 1026882666
gpu_ipc =    2006.0416
gpu_tot_sim_cycle = 511895
gpu_tot_sim_insn = 1026882666
gpu_tot_ipc =    2006.0416
gpu_tot_issued_cta = 2594
gpu_occupancy = 59.2729% 
gpu_tot_occupancy = 59.2729% 
max_total_param_size = 0
gpu_stall_dramfull = 52177
gpu_stall_icnt2sh    = 0
partiton_level_parallism =      25.2603
partiton_level_parallism_total  =      25.2603
partiton_level_parallism_util =      28.4010
partiton_level_parallism_util_total  =      28.4010
L2_BW  =     915.0291 GB/Sec
L2_BW_total  =     915.0291 GB/Sec
gpu_total_sim_rate=206824
############## bottleneck_stats #############
cycles: core 511895, icnt 511895, l2 511895, dram 384373
gpu_ipc	2006.042
gpu_tot_issued_cta = 2594, average cycles = 197
n_dram_writes	 0, n_dram_reads	 0
n_GLOBAL_ACC_R	 1234394 
n_LOCAL_ACC_R	 0 
n_CONST_ACC_R	 0 
n_TEXTURE_ACC_R	 0 
n_GLOBAL_ACC_W	 0 
n_LOCAL_ACC_W	 0 
n_L1_WRBK_ACC	 0 
n_L2_WRBK_ACC	 952532 
n_L1_WR_ALLOC_R	 0 
n_L2_WR_ALLOC_R	 0 

n_sm	 80, n_schedulers	 4
scheduler util	0.213	80
L1D data util	0.728	80	0.762	57
L1D tag util	0.243	80	0.254	57
L2 data util	0.478	64	0.486	55
L2 tag util	0.395	64	0.404	55
n_l2_access	 12945588
icnt s2m util	0.000	0	0.000	55	flits per packet: -nan
icnt m2s util	0.000	0	0.000	55	flits per packet: -nan
sum=0
n_mem	 32
dram util	0.310	32	0.315	3

latency_l1_hit:	69957938, num_l1_reqs:	1747618
L1 hit latency:	40
latency_l2_hit:	-1435923402, num_l2_reqs:	8613035
L2 hit latency:	830
latency_dram:	-1170885958, num_dram_reqs:	4277989
DRAM latency:	730

n_reg	65536, n_smem	98304, n_thread	2048, n_tb	32
reg file	0.938
smem size	0.228
thread slot	0.625
TB slot    	0.156
L1I tag util	0.474	80	0.497	57

n_mem_pipe	1, n_sp_pipe	4, n_sfu_pipe	4
mem pipe util	0.122	80	0.128	57
sp pipe util	0.000	0	0.000	57
sfu pipe util	0.000	0	0.000	57
ldst mem cycle	0.144	80	0.151	57

smem port	0.459	80

n_reg_bank	16
reg port	0.114	16	0.176	1
L1D tag util	0.243	80	0.254	57
L1D fill util	0.040	80	0.044	5
n_l1d_mshr	4096
L1D mshr util	0.012	80
n_l1d_missq	16
L1D missq util	0.050	80
L1D hit rate	0.175
L1D miss rate	0.704
L1D rsfail rate	0.121
L2 tag util	0.395	64	0.404	55
L2 fill util	0.038	64	0.038	6
n_l2_mshr	192
n_l2_missq	32
L2 mshr util	0.123	64	0.125	27
L2 missq util	0.002	64	0.003	3
L2 hit rate	0.668
L2 miss rate	0.330
L2 rsfail rate	0.001

dram activity	0.589	32	0.601	3

load trans eff	0.248
load trans sz	32.000
load_useful_bytes 26725136, load_transaction_bytes 107564608, icnt_m2s_bytes 0
n_gmem_load_insns 210094, n_gmem_load_accesses 3361394
n_smem_access_insn 3937719, n_smem_accesses 18796160

tmp_counter/12	0.421

run 0.036, fetch 0.001, sync 0.559, control 0.003, data 0.382, struct 0.019
############ end_bottleneck_stats #############

========= Core cache stats =========
L1I_cache:
	L1I_total_cache_accesses = 0
	L1I_total_cache_misses = 0
	L1I_total_cache_pending_hits = 0
	L1I_total_cache_reservation_fails = 0
L1D_cache:
	L1D_cache_core[0]: Access = 111474, Miss = 90024, Miss_rate = 0.808, Pending_hits = 0, Reservation_fails = 16232
	L1D_cache_core[1]: Access = 108096, Miss = 86368, Miss_rate = 0.799, Pending_hits = 0, Reservation_fails = 14252
	L1D_cache_core[2]: Access = 108096, Miss = 86570, Miss_rate = 0.801, Pending_hits = 0, Reservation_fails = 13941
	L1D_cache_core[3]: Access = 108096, Miss = 86706, Miss_rate = 0.802, Pending_hits = 0, Reservation_fails = 13844
	L1D_cache_core[4]: Access = 108096, Miss = 86448, Miss_rate = 0.800, Pending_hits = 0, Reservation_fails = 14686
	L1D_cache_core[5]: Access = 111474, Miss = 90412, Miss_rate = 0.811, Pending_hits = 0, Reservation_fails = 16254
	L1D_cache_core[6]: Access = 108096, Miss = 85787, Miss_rate = 0.794, Pending_hits = 0, Reservation_fails = 13975
	L1D_cache_core[7]: Access = 108096, Miss = 86674, Miss_rate = 0.802, Pending_hits = 0, Reservation_fails = 15344
	L1D_cache_core[8]: Access = 111474, Miss = 89351, Miss_rate = 0.802, Pending_hits = 0, Reservation_fails = 14184
	L1D_cache_core[9]: Access = 108096, Miss = 86637, Miss_rate = 0.801, Pending_hits = 0, Reservation_fails = 16116
	L1D_cache_core[10]: Access = 111474, Miss = 89192, Miss_rate = 0.800, Pending_hits = 0, Reservation_fails = 14570
	L1D_cache_core[11]: Access = 111474, Miss = 90553, Miss_rate = 0.812, Pending_hits = 0, Reservation_fails = 14847
	L1D_cache_core[12]: Access = 111474, Miss = 89851, Miss_rate = 0.806, Pending_hits = 0, Reservation_fails = 15095
	L1D_cache_core[13]: Access = 108096, Miss = 86740, Miss_rate = 0.802, Pending_hits = 0, Reservation_fails = 16658
	L1D_cache_core[14]: Access = 111474, Miss = 88921, Miss_rate = 0.798, Pending_hits = 0, Reservation_fails = 14067
	L1D_cache_core[15]: Access = 108096, Miss = 86537, Miss_rate = 0.801, Pending_hits = 0, Reservation_fails = 13343
	L1D_cache_core[16]: Access = 108096, Miss = 86782, Miss_rate = 0.803, Pending_hits = 0, Reservation_fails = 15192
	L1D_cache_core[17]: Access = 111474, Miss = 88846, Miss_rate = 0.797, Pending_hits = 0, Reservation_fails = 14080
	L1D_cache_core[18]: Access = 108096, Miss = 86731, Miss_rate = 0.802, Pending_hits = 0, Reservation_fails = 14401
	L1D_cache_core[19]: Access = 111474, Miss = 89127, Miss_rate = 0.800, Pending_hits = 0, Reservation_fails = 13709
	L1D_cache_core[20]: Access = 108096, Miss = 86875, Miss_rate = 0.804, Pending_hits = 0, Reservation_fails = 15269
	L1D_cache_core[21]: Access = 111474, Miss = 89108, Miss_rate = 0.799, Pending_hits = 0, Reservation_fails = 16172
	L1D_cache_core[22]: Access = 111474, Miss = 88405, Miss_rate = 0.793, Pending_hits = 0, Reservation_fails = 14474
	L1D_cache_core[23]: Access = 108096, Miss = 86519, Miss_rate = 0.800, Pending_hits = 0, Reservation_fails = 15413
	L1D_cache_core[24]: Access = 108096, Miss = 86601, Miss_rate = 0.801, Pending_hits = 0, Reservation_fails = 16268
	L1D_cache_core[25]: Access = 108096, Miss = 87224, Miss_rate = 0.807, Pending_hits = 0, Reservation_fails = 17959
	L1D_cache_core[26]: Access = 108096, Miss = 86050, Miss_rate = 0.796, Pending_hits = 0, Reservation_fails = 13549
	L1D_cache_core[27]: Access = 111474, Miss = 88942, Miss_rate = 0.798, Pending_hits = 0, Reservation_fails = 13762
	L1D_cache_core[28]: Access = 108096, Miss = 86848, Miss_rate = 0.803, Pending_hits = 0, Reservation_fails = 14565
	L1D_cache_core[29]: Access = 111474, Miss = 90258, Miss_rate = 0.810, Pending_hits = 0, Reservation_fails = 15369
	L1D_cache_core[30]: Access = 108096, Miss = 86383, Miss_rate = 0.799, Pending_hits = 0, Reservation_fails = 14503
	L1D_cache_core[31]: Access = 108096, Miss = 86887, Miss_rate = 0.804, Pending_hits = 0, Reservation_fails = 16392
	L1D_cache_core[32]: Access = 108096, Miss = 86365, Miss_rate = 0.799, Pending_hits = 0, Reservation_fails = 15233
	L1D_cache_core[33]: Access = 111474, Miss = 90164, Miss_rate = 0.809, Pending_hits = 0, Reservation_fails = 17181
	L1D_cache_core[34]: Access = 108096, Miss = 86542, Miss_rate = 0.801, Pending_hits = 0, Reservation_fails = 13797
	L1D_cache_core[35]: Access = 108096, Miss = 85863, Miss_rate = 0.794, Pending_hits = 0, Reservation_fails = 15343
	L1D_cache_core[36]: Access = 108096, Miss = 87080, Miss_rate = 0.806, Pending_hits = 0, Reservation_fails = 16799
	L1D_cache_core[37]: Access = 108096, Miss = 86724, Miss_rate = 0.802, Pending_hits = 0, Reservation_fails = 16397
	L1D_cache_core[38]: Access = 108096, Miss = 86302, Miss_rate = 0.798, Pending_hits = 0, Reservation_fails = 14305
	L1D_cache_core[39]: Access = 111474, Miss = 89014, Miss_rate = 0.799, Pending_hits = 0, Reservation_fails = 13939
	L1D_cache_core[40]: Access = 111474, Miss = 89062, Miss_rate = 0.799, Pending_hits = 0, Reservation_fails = 16942
	L1D_cache_core[41]: Access = 108096, Miss = 87144, Miss_rate = 0.806, Pending_hits = 0, Reservation_fails = 16046
	L1D_cache_core[42]: Access = 108096, Miss = 86322, Miss_rate = 0.799, Pending_hits = 0, Reservation_fails = 14357
	L1D_cache_core[43]: Access = 110356, Miss = 88076, Miss_rate = 0.798, Pending_hits = 0, Reservation_fails = 14543
	L1D_cache_core[44]: Access = 111474, Miss = 89876, Miss_rate = 0.806, Pending_hits = 0, Reservation_fails = 14759
	L1D_cache_core[45]: Access = 108096, Miss = 86440, Miss_rate = 0.800, Pending_hits = 0, Reservation_fails = 14645
	L1D_cache_core[46]: Access = 111474, Miss = 89908, Miss_rate = 0.807, Pending_hits = 0, Reservation_fails = 14393
	L1D_cache_core[47]: Access = 111474, Miss = 89291, Miss_rate = 0.801, Pending_hits = 0, Reservation_fails = 13900
	L1D_cache_core[48]: Access = 111474, Miss = 89384, Miss_rate = 0.802, Pending_hits = 0, Reservation_fails = 14795
	L1D_cache_core[49]: Access = 108096, Miss = 86464, Miss_rate = 0.800, Pending_hits = 0, Reservation_fails = 16151
	L1D_cache_core[50]: Access = 108096, Miss = 86022, Miss_rate = 0.796, Pending_hits = 0, Reservation_fails = 14051
	L1D_cache_core[51]: Access = 111474, Miss = 88623, Miss_rate = 0.795, Pending_hits = 0, Reservation_fails = 13343
	L1D_cache_core[52]: Access = 108096, Miss = 85940, Miss_rate = 0.795, Pending_hits = 0, Reservation_fails = 15003
	L1D_cache_core[53]: Access = 111474, Miss = 89392, Miss_rate = 0.802, Pending_hits = 0, Reservation_fails = 15960
	L1D_cache_core[54]: Access = 111474, Miss = 89605, Miss_rate = 0.804, Pending_hits = 0, Reservation_fails = 15310
	L1D_cache_core[55]: Access = 108096, Miss = 87822, Miss_rate = 0.812, Pending_hits = 0, Reservation_fails = 16044
	L1D_cache_core[56]: Access = 108096, Miss = 86139, Miss_rate = 0.797, Pending_hits = 0, Reservation_fails = 14968
	L1D_cache_core[57]: Access = 114852, Miss = 91765, Miss_rate = 0.799, Pending_hits = 0, Reservation_fails = 15305
	L1D_cache_core[58]: Access = 108096, Miss = 85994, Miss_rate = 0.796, Pending_hits = 0, Reservation_fails = 13414
	L1D_cache_core[59]: Access = 108096, Miss = 85782, Miss_rate = 0.794, Pending_hits = 0, Reservation_fails = 14849
	L1D_cache_core[60]: Access = 108096, Miss = 86112, Miss_rate = 0.797, Pending_hits = 0, Reservation_fails = 15457
	L1D_cache_core[61]: Access = 108096, Miss = 86395, Miss_rate = 0.799, Pending_hits = 0, Reservation_fails = 15808
	L1D_cache_core[62]: Access = 108096, Miss = 86387, Miss_rate = 0.799, Pending_hits = 0, Reservation_fails = 15177
	L1D_cache_core[63]: Access = 108096, Miss = 86843, Miss_rate = 0.803, Pending_hits = 0, Reservation_fails = 17348
	L1D_cache_core[64]: Access = 111474, Miss = 88937, Miss_rate = 0.798, Pending_hits = 0, Reservation_fails = 15490
	L1D_cache_core[65]: Access = 108096, Miss = 86397, Miss_rate = 0.799, Pending_hits = 0, Reservation_fails = 15150
	L1D_cache_core[66]: Access = 111474, Miss = 89082, Miss_rate = 0.799, Pending_hits = 0, Reservation_fails = 14479
	L1D_cache_core[67]: Access = 108096, Miss = 86473, Miss_rate = 0.800, Pending_hits = 0, Reservation_fails = 15031
	L1D_cache_core[68]: Access = 111474, Miss = 88832, Miss_rate = 0.797, Pending_hits = 0, Reservation_fails = 16036
	L1D_cache_core[69]: Access = 111474, Miss = 88601, Miss_rate = 0.795, Pending_hits = 0, Reservation_fails = 15481
	L1D_cache_core[70]: Access = 108096, Miss = 85786, Miss_rate = 0.794, Pending_hits = 0, Reservation_fails = 15325
	L1D_cache_core[71]: Access = 108096, Miss = 86875, Miss_rate = 0.804, Pending_hits = 0, Reservation_fails = 16058
	L1D_cache_core[72]: Access = 108096, Miss = 86580, Miss_rate = 0.801, Pending_hits = 0, Reservation_fails = 14665
	L1D_cache_core[73]: Access = 111474, Miss = 89194, Miss_rate = 0.800, Pending_hits = 0, Reservation_fails = 15061
	L1D_cache_core[74]: Access = 111474, Miss = 88747, Miss_rate = 0.796, Pending_hits = 0, Reservation_fails = 14958
	L1D_cache_core[75]: Access = 108096, Miss = 86660, Miss_rate = 0.802, Pending_hits = 0, Reservation_fails = 14612
	L1D_cache_core[76]: Access = 108096, Miss = 86736, Miss_rate = 0.802, Pending_hits = 0, Reservation_fails = 14958
[...]
bk0: 3688a 933117i bk1: 3684a 935723i bk2: 3652a 777547i bk3: 3648a 937509i bk4: 3696a 938535i bk5: 3704a 939942i bk6: 3600a 941976i bk7: 3632a 941471i bk8: 3720a 943337i bk9: 3672a 944175i bk10: 3768a 944729i bk11: 3768a 942913i bk12: 3768a 932823i bk13: 3792a 935796i bk14: 3816a 929439i bk15: 3840a 930038i 

------------------------------------------------------------------------

Row_Buffer_Locality = 0.944816
Row_Buffer_Locality_read = 0.939813
Row_Buffer_Locality_write = 0.949178
Bank_Level_Parallism = 2.179117
Bank_Level_Parallism_Col = 2.025141
Bank_Level_Parallism_Ready = 1.170922
write_to_read_ratio_blp_rw_average = 0.620308
GrpLevelPara = 1.734746 

BW Util details:
bwutil = 0.238391 
total_CMD = 983724 
util_bw = 234511 
Wasted_Col = 213443 
Wasted_Row = 19272 
Idle = 516498 

BW Util Bottlenecks: 
RCDc_limit = 23717 
RCDWRc_limit = 19147 
WTRc_limit = 133793 
RTWc_limit = 54432 
CCDLc_limit = 196137 
rwq = 0 
CCDLc_limit_alone = 168227 
WTRc_limit_alone = 110566 
RTWc_limit_alone = 49749 

Commands details: 
total_CMD = 983724 
n_nop = 740970 
Read = 59448 
Write = 0 
L2_Alloc = 0 
L2_WB = 175063 
n_act = 7043 
n_pre = 7027 
n_ref = 0 
n_req = 127634 
total_req = 234511 

Dual Bus Interface Util: 
issued_total_row = 14070 
issued_total_col = 234511 
Row_Bus_Util =  0.014303 
CoL_Bus_Util = 0.238391 
Either_Row_CoL_Bus_Util = 0.246770 
Issued_on_Two_Bus_Simul_Util = 0.005923 
issued_two_Eff = 0.024004 
queue_avg = 7.794810 


dram_util_bins: 0 0 0 0 0 0 0 0 0 0
dram_eff_bins: 0 0 0 0 0 0 0 0 0 0
mrqq: max=64 avg=7.79481
Memory Partition 29: 
Cache L2_bank_058:

Cache L2_bank_059:

In Dram Latency Queue (total = 0): 
DRAM[29]: 16 bks, busW=16 BL=2 CL=12, tRRD=3 tCCD=1, tRCD=12 tRAS=28 tRP=12 tRC=40
n_cmd=983724 n_nop=700612 n_act=6453 n_pre=6437 n_ref_event=0 n_req=146816 n_rd=59396 n_rd_L2_A=0 n_write=0 n_wr_bk=216486 bw_util=0.2804
n_activity=590578 dram_eff=0.4671
bk0: 3688a 933099i bk1: 3680a 935699i bk2: 3640a 732395i bk3: 3648a 940202i bk4: 3696a 946572i bk5: 3704a 947008i bk6: 3600a 946855i bk7: 3624a 944708i bk8: 3720a 945960i bk9: 3672a 945228i bk10: 3756a 949338i bk11: 3760a 947126i bk12: 3776a 938109i bk13: 3788a 936283i bk14: 3816a 927889i bk15: 3828a 930141i 

------------------------------------------------------------------------

Row_Buffer_Locality = 0.956047
Row_Buffer_Locality_read = 0.944020
Row_Buffer_Locality_write = 0.964219
Bank_Level_Parallism = 1.931175
Bank_Level_Parallism_Col = 1.805791
Bank_Level_Parallism_Ready = 1.149709
write_to_read_ratio_blp_rw_average = 0.693794
GrpLevelPara = 1.569630 

BW Util details:
bwutil = 0.280447 
total_CMD = 983724 
util_bw = 275882 
Wasted_Col = 244755 
Wasted_Row = 17785 
Idle = 445302 

BW Util Bottlenecks: 
RCDc_limit = 21075 
RCDWRc_limit = 16980 
WTRc_limit = 111833 
RTWc_limit = 51646 
CCDLc_limit = 221080 
rwq = 0 
CCDLc_limit_alone = 198242 
WTRc_limit_alone = 93291 
RTWc_limit_alone = 47350 

Commands details: 
total_CMD = 983724 
n_nop = 700612 
Read = 59396 
Write = 0 
L2_Alloc = 0 
L2_WB = 216486 
n_act = 6453 
n_pre = 6437 
n_ref = 0 
n_req = 146816 
total_req = 275882 

Dual Bus Interface Util: 
issued_total_row = 12890 
issued_total_col = 275882 
Row_Bus_Util =  0.013103 
CoL_Bus_Util = 0.280447 
Either_Row_CoL_Bus_Util = 0.287796 
Issued_on_Two_Bus_Simul_Util = 0.005754 
issued_two_Eff = 0.019992 
queue_avg = 6.072402 


dram_util_bins: 0 0 0 0 0 0 0 0 0 0
dram_eff_bins: 0 0 0 0 0 0 0 0 0 0
mrqq: max=64 avg=6.0724
Memory Partition 30: 
Cache L2_bank_060:

Cache L2_bank_061:

In Dram Latency Queue (total = 0): 
DRAM[30]: 16 bks, busW=16 BL=2 CL=12, tRRD=3 tCCD=1, tRCD=12 tRAS=28 tRP=12 tRC=40
n_cmd=983724 n_nop=701574 n_act=6320 n_pre=6304 n_ref_event=0 n_req=144398 n_rd=59376 n_rd_L2_A=0 n_write=0 n_wr_bk=215628 bw_util=0.2796
n_activity=580789 dram_eff=0.4735
bk0: 3688a 935652i bk1: 3680a 938127i bk2: 3656a 735004i bk3: 3648a 938892i bk4: 3704a 943870i bk5: 3664a 945018i bk6: 3616a 948144i bk7: 3616a 946587i bk8: 3724a 946592i bk9: 3680a 945918i bk10: 3764a 948285i bk11: 3760a 945160i bk12: 3752a 941213i bk13: 3784a 933979i bk14: 3824a 931240i bk15: 3816a 931779i 

------------------------------------------------------------------------

Row_Buffer_Locality = 0.956232
Row_Buffer_Locality_read = 0.945348
Row_Buffer_Locality_write = 0.963833
Bank_Level_Parallism = 1.913127
Bank_Level_Parallism_Col = 1.789463
Bank_Level_Parallism_Ready = 1.135580
write_to_read_ratio_blp_rw_average = 0.683950
GrpLevelPara = 1.572300 

BW Util details:
bwutil = 0.279554 
total_CMD = 983724 
util_bw = 275004 
Wasted_Col = 245172 
Wasted_Row = 17437 
Idle = 446111 

BW Util Bottlenecks: 
RCDc_limit = 20403 
RCDWRc_limit = 17022 
WTRc_limit = 118117 
RTWc_limit = 45826 
CCDLc_limit = 224470 
rwq = 0 
CCDLc_limit_alone = 201621 
WTRc_limit_alone = 98931 
RTWc_limit_alone = 42163 

Commands details: 
total_CMD = 983724 
n_nop = 701574 
Read = 59376 
Write = 0 
L2_Alloc = 0 
L2_WB = 215628 
n_act = 6320 
n_pre = 6304 
n_ref = 0 
n_req = 144398 
total_req = 275004 

Dual Bus Interface Util: 
issued_total_row = 12624 
issued_total_col = 275004 
Row_Bus_Util =  0.012833 
CoL_Bus_Util = 0.279554 
Either_Row_CoL_Bus_Util = 0.286818 
Issued_on_Two_Bus_Simul_Util = 0.005569 
issued_two_Eff = 0.019415 
queue_avg = 6.175210 


dram_util_bins: 0 0 0 0 0 0 0 0 0 0
dram_eff_bins: 0 0 0 0 0 0 0 0 0 0
mrqq: max=64 avg=6.17521
Memory Partition 31: 
Cache L2_bank_062:

Cache L2_bank_063:

In Dram Latency Queue (total = 0): 
DRAM[31]: 16 bks, busW=16 BL=2 CL=12, tRRD=3 tCCD=1, tRCD=12 tRAS=28 tRP=12 tRC=40
n_cmd=983724 n_nop=699178 n_act=6274 n_pre=6258 n_ref_event=0 n_req=146964 n_rd=59377 n_rd_L2_A=0 n_write=0 n_wr_bk=218036 bw_util=0.282
n_activity=598712 dram_eff=0.4633
bk0: 3688a 931150i bk1: 3680a 934171i bk2: 3652a 729855i bk3: 3652a 933620i bk4: 3704a 938793i bk5: 3680a 941411i bk6: 3616a 949550i bk7: 3616a 948982i bk8: 3720a 946860i bk9: 3672a 948441i bk10: 3768a 946953i bk11: 3752a 948544i bk12: 3761a 940865i bk13: 3776a 938985i bk14: 3824a 927971i bk15: 3816a 927342i 

------------------------------------------------------------------------

Row_Buffer_Locality = 0.957309
Row_Buffer_Locality_read = 0.946090
Row_Buffer_Locality_write = 0.964915
Bank_Level_Parallism = 1.926573
Bank_Level_Parallism_Col = 1.809879
Bank_Level_Parallism_Ready = 1.140206
write_to_read_ratio_blp_rw_average = 0.689958
GrpLevelPara = 1.569101 

BW Util details:
bwutil = 0.282003 
total_CMD = 983724 
util_bw = 277413 
Wasted_Col = 250449 
Wasted_Row = 18733 
Idle = 437129 

BW Util Bottlenecks: 
RCDc_limit = 20618 
RCDWRc_limit = 17216 
WTRc_limit = 123874 
RTWc_limit = 51012 
CCDLc_limit = 227567 
rwq = 0 
CCDLc_limit_alone = 203333 
WTRc_limit_alone = 103831 
RTWc_limit_alone = 46821 

Commands details: 
total_CMD = 983724 
n_nop = 699178 
Read = 59377 
Write = 0 
L2_Alloc = 0 
L2_WB = 218036 
n_act = 6274 
n_pre = 6258 
n_ref = 0 
n_req = 146964 
total_req = 277413 

Dual Bus Interface Util: 
issued_total_row = 12532 
issued_total_col = 277413 
Row_Bus_Util =  0.012739 
CoL_Bus_Util = 0.282003 
Either_Row_CoL_Bus_Util = 0.289254 
Issued_on_Two_Bus_Simul_Util = 0.005488 
issued_two_Eff = 0.018974 
queue_avg = 6.148276 


dram_util_bins: 0 0 0 0 0 0 0 0 0 0
dram_eff_bins: 0 0 0 0 0 0 0 0 0 0
mrqq: max=64 avg=6.14828

========= L2 cache stats =========
L2_cache_bank[0]: Access = 313677, Miss = 77012, Miss_rate = 0.246, Pending_hits = 196, Reservation_fails = 6766
L2_cache_bank[1]: Access = 488797, Miss = 77356, Miss_rate = 0.158, Pending_hits = 209, Reservation_fails = 9673
L2_cache_bank[2]: Access = 326216, Miss = 77073, Miss_rate = 0.236, Pending_hits = 189, Reservation_fails = 10557
L2_cache_bank[3]: Access = 506160, Miss = 77393, Miss_rate = 0.153, Pending_hits = 191, Reservation_fails = 12867
L2_cache_bank[4]: Access = 475540, Miss = 223867, Miss_rate = 0.471, Pending_hits = 194, Reservation_fails = 5595
L2_cache_bank[5]: Access = 486539, Miss = 77400, Miss_rate = 0.159, Pending_hits = 201, Reservation_fails = 6331
L2_cache_bank[6]: Access = 487559, Miss = 243629, Miss_rate = 0.500, Pending_hits = 184, Reservation_fails = 17569
L2_cache_bank[7]: Access = 510908, Miss = 77425, Miss_rate = 0.152, Pending_hits = 210, Reservation_fails = 12826
L2_cache_bank[8]: Access = 504946, Miss = 253217, Miss_rate = 0.501, Pending_hits = 194, Reservation_fails = 5915
L2_cache_bank[9]: Access = 493136, Miss = 77373, Miss_rate = 0.157, Pending_hits = 207, Reservation_fails = 9489
L2_cache_bank[10]: Access = 488993, Miss = 243622, Miss_rate = 0.498, Pending_hits = 191, Reservation_fails = 7477
L2_cache_bank[11]: Access = 513571, Miss = 77371, Miss_rate = 0.151, Pending_hits = 194, Reservation_fails = 12008
L2_cache_bank[12]: Access = 504383, Miss = 253209, Miss_rate = 0.502, Pending_hits = 220, Reservation_fails = 9543
L2_cache_bank[13]: Access = 494170, Miss = 77381, Miss_rate = 0.157, Pending_hits = 191, Reservation_fails = 7902
L2_cache_bank[14]: Access = 487912, Miss = 243593, Miss_rate = 0.499, Pending_hits = 209, Reservation_fails = 9573
L2_cache_bank[15]: Access = 514246, Miss = 77392, Miss_rate = 0.150, Pending_hits = 193, Reservation_fails = 8508
L2_cache_bank[16]: Access = 511569, Miss = 253238, Miss_rate = 0.495, Pending_hits = 210, Reservation_fails = 8581
L2_cache_bank[17]: Access = 495792, Miss = 77424, Miss_rate = 0.156, Pending_hits = 212, Reservation_fails = 9570
L2_cache_bank[18]: Access = 496216, Miss = 243544, Miss_rate = 0.491, Pending_hits = 200, Reservation_fails = 9971
L2_cache_bank[19]: Access = 511057, Miss = 77365, Miss_rate = 0.151, Pending_hits = 187, Reservation_fails = 9000
L2_cache_bank[20]: Access = 509211, Miss = 253101, Miss_rate = 0.497, Pending_hits = 202, Reservation_fails = 12739
L2_cache_bank[21]: Access = 490813, Miss = 77240, Miss_rate = 0.157, Pending_hits = 226, Reservation_fails = 9180
L2_cache_bank[22]: Access = 491991, Miss = 243454, Miss_rate = 0.495, Pending_hits = 184, Reservation_fails = 7383
L2_cache_bank[23]: Access = 270403, Miss = 77164, Miss_rate = 0.285, Pending_hits = 205, Reservation_fails = 10351
L2_cache_bank[24]: Access = 462955, Miss = 253129, Miss_rate = 0.547, Pending_hits = 174, Reservation_fails = 2164
L2_cache_bank[25]: Access = 169000, Miss = 77120, Miss_rate = 0.456, Pending_hits = 133, Reservation_fails = 3336
L2_cache_bank[26]: Access = 493471, Miss = 243477, Miss_rate = 0.493, Pending_hits = 166, Reservation_fails = 2445
L2_cache_bank[27]: Access = 215623, Miss = 77113, Miss_rate = 0.358, Pending_hits = 156, Reservation_fails = 2926
L2_cache_bank[28]: Access = 505426, Miss = 253081, Miss_rate = 0.501, Pending_hits = 145, Reservation_fails = 4928
L2_cache_bank[29]: Access = 215086, Miss = 77115, Miss_rate = 0.359, Pending_hits = 164, Reservation_fails = 3388
L2_cache_bank[30]: Access = 489182, Miss = 243472, Miss_rate = 0.498, Pending_hits = 158, Reservation_fails = 3891
L2_cache_bank[31]: Access = 215167, Miss = 77076, Miss_rate = 0.358, Pending_hits = 167, Reservation_fails = 5154
L2_cache_bank[32]: Access = 410705, Miss = 253048, Miss_rate = 0.616, Pending_hits = 147, Reservation_fails = 3673
L2_cache_bank[33]: Access = 215232, Miss = 77111, Miss_rate = 0.358, Pending_hits = 166, Reservation_fails = 8775
L2_cache_bank[34]: Access = 381336, Miss = 243443, Miss_rate = 0.638, Pending_hits = 141, Reservation_fails = 1122
L2_cache_bank[35]: Access = 215233, Miss = 77111, Miss_rate = 0.358, Pending_hits = 175, Reservation_fails = 3251
L2_cache_bank[36]: Access = 244830, Miss = 106802, Miss_rate = 0.436, Pending_hits = 163, Reservation_fails = 4671
L2_cache_bank[37]: Access = 215083, Miss = 77148, Miss_rate = 0.359, Pending_hits = 155, Reservation_fails = 5468
L2_cache_bank[38]: Access = 215550, Miss = 77456, Miss_rate = 0.359, Pending_hits = 166, Reservation_fails = 7341
L2_cache_bank[39]: Access = 214973, Miss = 77122, Miss_rate = 0.359, Pending_hits = 149, Reservation_fails = 5938
L2_cache_bank[40]: Access = 216910, Miss = 77433, Miss_rate = 0.357, Pending_hits = 125, Reservation_fails = 5553
L2_cache_bank[41]: Access = 216331, Miss = 77110, Miss_rate = 0.356, Pending_hits = 164, Reservation_fails = 6956
L2_cache_bank[42]: Access = 216845, Miss = 77434, Miss_rate = 0.357, Pending_hits = 147, Reservation_fails = 5637
L2_cache_bank[43]: Access = 216222, Miss = 77123, Miss_rate = 0.357, Pending_hits = 160, Reservation_fails = 7062
L2_cache_bank[44]: Access = 216769, Miss = 77445, Miss_rate = 0.357, Pending_hits = 138, Reservation_fails = 2343
L2_cache_bank[45]: Access = 215986, Miss = 77095, Miss_rate = 0.357, Pending_hits = 151, Reservation_fails = 5924
L2_cache_bank[46]: Access = 216783, Miss = 77479, Miss_rate = 0.357, Pending_hits = 142, Reservation_fails = 4601
L2_cache_bank[47]: Access = 216699, Miss = 77087, Miss_rate = 0.356, Pending_hits = 172, Reservation_fails = 8154
L2_cache_bank[48]: Access = 216797, Miss = 77519, Miss_rate = 0.358, Pending_hits = 163, Reservation_fails = 3733
L2_cache_bank[49]: Access = 216854, Miss = 77103, Miss_rate = 0.356, Pending_hits = 169, Reservation_fails = 3274
L2_cache_bank[50]: Access = 216984, Miss = 77465, Miss_rate = 0.357, Pending_hits = 158, Reservation_fails = 9147
L2_cache_bank[51]: Access = 217064, Miss = 77078, Miss_rate = 0.355, Pending_hits = 153, Reservation_fails = 5522
L2_cache_bank[52]: Access = 216751, Miss = 77448, Miss_rate = 0.357, Pending_hits = 158, Reservation_fails = 6194
L2_cache_bank[53]: Access = 216997, Miss = 77071, Miss_rate = 0.355, Pending_hits = 168, Reservation_fails = 6478
L2_cache_bank[54]: Access = 457703, Miss = 77472, Miss_rate = 0.169, Pending_hits = 189, Reservation_fails = 11697
L2_cache_bank[55]: Access = 216925, Miss = 77095, Miss_rate = 0.355, Pending_hits = 233, Reservation_fails = 15532
L2_cache_bank[56]: Access = 446101, Miss = 77389, Miss_rate = 0.173, Pending_hits = 187, Reservation_fails = 3643
L2_cache_bank[57]: Access = 170047, Miss = 77116, Miss_rate = 0.453, Pending_hits = 209, Reservation_fails = 12396
L2_cache_bank[58]: Access = 508852, Miss = 77332, Miss_rate = 0.152, Pending_hits = 224, Reservation_fails = 12246
L2_cache_bank[59]: Access = 216544, Miss = 77093, Miss_rate = 0.356, Pending_hits = 221, Reservation_fails = 6334
L2_cache_bank[60]: Access = 488456, Miss = 77369, Miss_rate = 0.158, Pending_hits = 218, Reservation_fails = 10607
L2_cache_bank[61]: Access = 215783, Miss = 77017, Miss_rate = 0.357, Pending_hits = 228, Reservation_fails = 13157
L2_cache_bank[62]: Access = 507657, Miss = 77377, Miss_rate = 0.152, Pending_hits = 198, Reservation_fails = 10854
L2_cache_bank[63]: Access = 215335, Miss = 77030, Miss_rate = 0.358, Pending_hits = 213, Reservation_fails = 15665
L2_total_cache_accesses = 22730052
L2_total_cache_misses = 7681847
L2_total_cache_miss_rate = 0.3380
L2_total_cache_pending_hits = 11612
L2_total_cache_reservation_fails = 490554
L2_total_cache_breakdown:
	L2_cache_stats_breakdown[GLOBAL_ACC_R][HIT] = 1309338
	L2_cache_stats_breakdown[GLOBAL_ACC_R][HIT_RESERVED] = 11612
	L2_cache_stats_breakdown[GLOBAL_ACC_R][MISS] = 475971
	L2_cache_stats_breakdown[GLOBAL_ACC_R][RESERVATION_FAIL] = 490554
	L2_cache_stats_breakdown[GLOBAL_ACC_R][SECTOR_MISS] = 1427851
	L2_cache_stats_breakdown[LOCAL_ACC_R][HIT] = 0
	L2_cache_stats_breakdown[LOCAL_ACC_R][HIT_RESERVED] = 0
	L2_cache_stats_breakdown[LOCAL_ACC_R][MISS] = 0
	L2_cache_stats_breakdown[LOCAL_ACC_R][RESERVATION_FAIL] = 0
	L2_cache_stats_breakdown[LOCAL_ACC_R][SECTOR_MISS] = 0
	L2_cache_stats_breakdown[CONST_ACC_R][HIT] = 0
	L2_cache_stats_breakdown[CONST_ACC_R][HIT_RESERVED] = 0
	L2_cache_stats_breakdown[CONST_ACC_R][MISS] = 0
	L2_cache_stats_breakdown[CONST_ACC_R][RESERVATION_FAIL] = 0
	L2_cache_stats_breakdown[CONST_ACC_R][SECTOR_MISS] = 0
	L2_cache_stats_breakdown[TEXTURE_ACC_R][HIT] = 0
	L2_cache_stats_breakdown[TEXTURE_ACC_R][HIT_RESERVED] = 0
	L2_cache_stats_breakdown[TEXTURE_ACC_R][MISS] = 0
	L2_cache_stats_breakdown[TEXTURE_ACC_R][RESERVATION_FAIL] = 0
	L2_cache_stats_breakdown[TEXTURE_ACC_R][SECTOR_MISS] = 0
	L2_cache_stats_breakdown[GLOBAL_ACC_W][HIT] = 13727255
	L2_cache_stats_breakdown[GLOBAL_ACC_W][HIT_RESERVED] = 0
	L2_cache_stats_breakdown[GLOBAL_ACC_W][MISS] = 168159
	L2_cache_stats_breakdown[GLOBAL_ACC_W][RESERVATION_FAIL] = 0
	L2_cache_stats_breakdown[GLOBAL_ACC_W][SECTOR_MISS] = 5609866
	L2_cache_stats_breakdown[LOCAL_ACC_W][HIT] = 0
	L2_cache_stats_breakdown[LOCAL_ACC_W][HIT_RESERVED] = 0
	L2_cache_stats_breakdown[LOCAL_ACC_W][MISS] = 0
	L2_cache_stats_breakdown[LOCAL_ACC_W][RESERVATION_FAIL] = 0
	L2_cache_stats_breakdown[LOCAL_ACC_W][SECTOR_MISS] = 0
	L2_cache_stats_breakdown[L1_WRBK_ACC][HIT] = 0
	L2_cache_stats_breakdown[L1_WRBK_ACC][HIT_RESERVED] = 0
	L2_cache_stats_breakdown[L1_WRBK_ACC][MISS] = 0
	L2_cache_stats_breakdown[L1_WRBK_ACC][RESERVATION_FAIL] = 0
	L2_cache_stats_breakdown[L1_WRBK_ACC][SECTOR_MISS] = 0
	L2_cache_stats_breakdown[L2_WRBK_ACC][HIT] = 0
	L2_cache_stats_breakdown[L2_WRBK_ACC][HIT_RESERVED] = 0
	L2_cache_stats_breakdown[L2_WRBK_ACC][MISS] = 0
	L2_cache_stats_breakdown[L2_WRBK_ACC][RESERVATION_FAIL] = 0
	L2_cache_stats_breakdown[L2_WRBK_ACC][SECTOR_MISS] = 0
	L2_cache_stats_breakdown[INST_ACC_R][HIT] = 0
	L2_cache_stats_breakdown[INST_ACC_R][HIT_RESERVED] = 0
	L2_cache_stats_breakdown[INST_ACC_R][MISS] = 0
	L2_cache_stats_breakdown[INST_ACC_R][RESERVATION_FAIL] = 0
	L2_cache_stats_breakdown[INST_ACC_R][SECTOR_MISS] = 0
	L2_cache_stats_breakdown[L1_WR_ALLOC_R][HIT] = 0
	L2_cache_stats_breakdown[L1_WR_ALLOC_R][HIT_RESERVED] = 0
	L2_cache_stats_breakdown[L1_WR_ALLOC_R][MISS] = 0
	L2_cache_stats_breakdown[L1_WR_ALLOC_R][RESERVATION_FAIL] = 0
	L2_cache_stats_breakdown[L1_WR_ALLOC_R][SECTOR_MISS] = 0
	L2_cache_stats_breakdown[L2_WR_ALLOC_R][HIT] = 0
	L2_cache_stats_breakdown[L2_WR_ALLOC_R][HIT_RESERVED] = 0
	L2_cache_stats_breakdown[L2_WR_ALLOC_R][MISS] = 0
	L2_cache_stats_breakdown[L2_WR_ALLOC_R][RESERVATION_FAIL] = 0
	L2_cache_stats_breakdown[L2_WR_ALLOC_R][SECTOR_MISS] = 0
	L2_cache_stats_breakdown[GLOBAL_ACC_R][TOTAL_ACCESS] = 3224772
	L2_cache_stats_breakdown[GLOBAL_ACC_W][TOTAL_ACCESS] = 19505280
L2_total_cache_reservation_fail_breakdown:
	L2_cache_stats_fail_breakdown[GLOBAL_ACC_R][MSHR_ENRTY_FAIL] = 165338
	L2_cache_stats_fail_breakdown[GLOBAL_ACC_R][MSHR_MERGE_ENRTY_FAIL] = 325216
L2_cache_data_port_util = 0.196
L2_cache_fill_port_util = 0.023

icnt_total_pkts_mem_to_simt=22730052
icnt_total_pkts_simt_to_mem=22730052
LD_mem_lat_dist  0 0 0 0 0 0 0 0 0 0 0 0 0 0 0 0 0 0 0 0 0 0 0 0 0 0 0
ST_mem_lat_dist  0 0 0 0 0 0 0 0 0 0 0 0 0 0 0 0 0 0 0 0 0 0 0 0 0 0 0
----------------------------Interconnect-DETAILS--------------------------------
Req_Network_injected_packets_num = 22730052
Req_Network_cycles = 1310090
Req_Network_injected_packets_per_cycle =      17.3500 
Req_Network_conflicts_per_cycle =      21.4640
Req_Network_conflicts_per_cycle_util =      22.6086
Req_Bank_Level_Parallism =      18.2752
Req_Network_in_buffer_full_per_cycle =       6.2312
Req_Network_in_buffer_avg_util =     113.9255
Req_Network_out_buffer_full_per_cycle =       0.0482
Req_Network_out_buffer_avg_util =       3.0821

Reply_Network_injected_packets_num = 22730052
Reply_Network_cycles = 1310090
Reply_Network_injected_packets_per_cycle =       17.3500
Reply_Network_conflicts_per_cycle =       11.2213
Reply_Network_conflicts_per_cycle_util =      11.8197
Reply_Bank_Level_Parallism =      18.2753
Reply_Network_in_buffer_full_per_cycle =       0.0038
Reply_Network_in_buffer_avg_util =      10.7942
Reply_Network_out_buffer_full_per_cycle =       0.0000
Reply_Network_out_buffer_avg_util =       0.2169
----------------------------END-of-Interconnect-DETAILS-------------------------


gpgpu_simulation_time = 0 days, 4 hrs, 4 min, 41 sec (14681 sec)
gpgpu_simulation_rate = 261910 (inst/sec)
gpgpu_simulation_rate = 89 (cycle/sec)
gpgpu_silicon_slowdown = 12719101x
GPGPU-Sim: synchronize waiting for inactive GPU simulation
GPGPU-Sim API: Stream Manager State
GPGPU-Sim: detected inactive GPU simulation thread
GPGPU-Sim: *** exit detected ***
