

        *** GPGPU-Sim Simulator Version 4.0.0  [build gpgpu-sim_git-commit-ffe0a1a00e984ecce9bf36e17ab94c4de0de8108_modified_0.0] ***


GPGPU-Sim PTX: simulation mode 0 (can change with PTX_SIM_MODE_FUNC environment variable:
               1=functional simulation only, 0=detailed performance simulator)
GPGPU-Sim PTX: overriding embedded ptx with ptx file (PTX_SIM_USE_PTX_FILE is set)
GPGPU-Sim: Configuration options:

-save_embedded_ptx                      0 # saves ptx files embedded in binary as <n>.ptx
-keep                                   0 # keep intermediate files created by GPGPU-Sim when interfacing with external programs
-gpgpu_ptx_save_converted_ptxplus                    0 # Saved converted ptxplus to a file
-gpgpu_occupancy_sm_number                   70 # The SM number to pass to ptxas when getting register usage for computing GPU occupancy. This parameter is required in the config.
-ptx_opcode_latency_int      4,13,4,5,145,21 # Opcode latencies for integers <ADD,MAX,MUL,MAD,DIV,SHFL>Default 1,1,19,25,145,32
-ptx_opcode_latency_fp          4,13,4,5,39 # Opcode latencies for single precision floating points <ADD,MAX,MUL,MAD,DIV>Default 1,1,1,1,30
-ptx_opcode_latency_dp         8,19,8,8,330 # Opcode latencies for double precision floating points <ADD,MAX,MUL,MAD,DIV>Default 8,8,8,8,335
-ptx_opcode_latency_sfu                  100 # Opcode latencies for SFU instructionsDefault 8
-ptx_opcode_latency_tesnor                   64 # Opcode latencies for Tensor instructionsDefault 64
-ptx_opcode_initiation_int          2,2,2,2,8,4 # Opcode initiation intervals for integers <ADD,MAX,MUL,MAD,DIV,SHFL>Default 1,1,4,4,32,4
-ptx_opcode_initiation_fp            2,2,2,2,4 # Opcode initiation intervals for single precision floating points <ADD,MAX,MUL,MAD,DIV>Default 1,1,1,1,5
-ptx_opcode_initiation_dp          4,4,4,4,130 # Opcode initiation intervals for double precision floating points <ADD,MAX,MUL,MAD,DIV>Default 8,8,8,8,130
-ptx_opcode_initiation_sfu                    8 # Opcode initiation intervals for sfu instructionsDefault 8
-ptx_opcode_initiation_tensor                   64 # Opcode initiation intervals for tensor instructionsDefault 64
-cdp_latency         7200,8000,100,12000,1600 # CDP API latency <cudaStreamCreateWithFlags, cudaGetParameterBufferV2_init_perWarp, cudaGetParameterBufferV2_perKernel, cudaLaunchDeviceV2_init_perWarp, cudaLaunchDevicV2_perKernel>Default 7200,8000,100,12000,1600
-network_mode                           2 # Interconnection network mode
-inter_config_file                   mesh # Interconnection network config file
-icnt_in_buffer_limit                  512 # in_buffer_limit
-icnt_out_buffer_limit                  512 # out_buffer_limit
-icnt_subnets                           2 # subnets
-icnt_arbiter_algo                      1 # arbiter_algo
-icnt_verbose                           0 # inct_verbose
-icnt_grant_cycles                      1 # grant_cycles
-gpgpu_ptx_use_cuobjdump                    1 # Use cuobjdump to extract ptx and sass from binaries
-gpgpu_experimental_lib_support                    0 # Try to extract code from cuda libraries [Broken because of unknown cudaGetExportTable]
-checkpoint_option                      0 #  checkpointing flag (0 = no checkpoint)
-checkpoint_kernel                      1 #  checkpointing during execution of which kernel (1- 1st kernel)
-checkpoint_CTA                         0 #  checkpointing after # of CTA (< less than total CTA)
-resume_option                          0 #  resume flag (0 = no resume)
-resume_kernel                          0 #  Resume from which kernel (1= 1st kernel)
-resume_CTA                             0 #  resume from which CTA 
-checkpoint_CTA_t                       0 #  resume from which CTA 
-checkpoint_insn_Y                      0 #  resume from which CTA 
-gpgpu_ptx_convert_to_ptxplus                    0 # Convert SASS (native ISA) to ptxplus and run ptxplus
-gpgpu_ptx_force_max_capability                   70 # Force maximum compute capability
-gpgpu_ptx_inst_debug_to_file                    0 # Dump executed instructions' debug information to file
-gpgpu_ptx_inst_debug_file       inst_debug.txt # Executed instructions' debug output file
-gpgpu_ptx_inst_debug_thread_uid                    1 # Thread UID for executed instructions' debug output
-gpgpu_n_mem_for_l2wb_pcommit                   32 # number of memory modules (e.g. memory controllers) in gpu
-gpgpu_n_sub_partition_per_mchannel_for_l2wb_pcommit                    2 # number of memory subpartition in each memory module
-gpgpu_dl2_bsize_for_l2wb_pcommit                  128 # default 128 bytes
-gpgpu_simd_model                       1 # 1 = post-dominator
-gpgpu_shader_core_pipeline              2048:32 # shader core pipeline config, i.e., {<nthread>:<warpsize>}
-gpgpu_tex_cache:l1  N:4:128:256,L:R:m:N:L,T:512:8,128:2 # per-shader L1 texture cache  (READ-ONLY) config  {<nsets>:<bsize>:<assoc>,<rep>:<wr>:<alloc>:<wr_alloc>,<mshr>:<N>:<merge>,<mq>:<rf>}
-gpgpu_const_cache:l1 N:128:64:8,L:R:f:N:L,S:2:64,4 # per-shader L1 constant memory cache  (READ-ONLY) config  {<nsets>:<bsize>:<assoc>,<rep>:<wr>:<alloc>:<wr_alloc>,<mshr>:<N>:<merge>,<mq>} 
-gpgpu_cache:il1     N:64:128:16,L:R:f:N:L,S:2:48,4 # shader L1 instruction cache config  {<nsets>:<bsize>:<assoc>,<rep>:<wr>:<alloc>:<wr_alloc>,<mshr>:<N>:<merge>,<mq>} 
-gpgpu_cache:dl1     S:1:128:256,L:L:s:N:L,A:256:8,16:0,32 # per-shader L1 data cache config  {<nsets>:<bsize>:<assoc>,<rep>:<wr>:<alloc>:<wr_alloc>,<mshr>:<N>:<merge>,<mq> | none}
-gpgpu_l1_banks                         4 # The number of L1 cache banks
-gpgpu_l1_banks_byte_interleaving                   32 # l1 banks byte interleaving granularity
-gpgpu_l1_banks_hashing_function                    0 # l1 banks hashing function
-gpgpu_l1_latency                      20 # L1 Hit Latency
-gpgpu_smem_latency                    20 # smem Latency
-gpgpu_cache:dl1PrefL1                 none # per-shader L1 data cache config  {<nsets>:<bsize>:<assoc>,<rep>:<wr>:<alloc>:<wr_alloc>,<mshr>:<N>:<merge>,<mq> | none}
-gpgpu_cache:dl1PrefShared                 none # per-shader L1 data cache config  {<nsets>:<bsize>:<assoc>,<rep>:<wr>:<alloc>:<wr_alloc>,<mshr>:<N>:<merge>,<mq> | none}
-gpgpu_gmem_skip_L1D                    0 # global memory access skip L1D cache (implements -Xptxas -dlcm=cg, default=no skip)
-gpgpu_perfect_mem                      0 # enable perfect memory mode (no cache miss)
-n_regfile_gating_group                    4 # group of lanes that should be read/written together)
-gpgpu_clock_gated_reg_file                    0 # enable clock gated reg file for power calculations
-gpgpu_clock_gated_lanes                    0 # enable clock gated lanes for power calculations
-gpgpu_shader_registers                65536 # Number of registers per shader core. Limits number of concurrent CTAs. (default 8192)
-gpgpu_registers_per_block                65536 # Maximum number of registers per CTA. (default 8192)
-gpgpu_ignore_resources_limitation                    0 # gpgpu_ignore_resources_limitation (default 0)
-gpgpu_shader_cta                      32 # Maximum number of concurrent CTAs in shader (default 8)
-gpgpu_num_cta_barriers                   16 # Maximum number of named barriers per CTA (default 16)
-gpgpu_n_clusters                      80 # number of processing clusters
-gpgpu_n_cores_per_cluster                    1 # number of simd cores per cluster
-gpgpu_n_cluster_ejection_buffer_size                   32 # number of packets in ejection buffer
-gpgpu_n_ldst_response_buffer_size                    2 # number of response packets in ld/st unit ejection buffer
-gpgpu_shmem_per_block                65536 # Size of shared memory per thread block or CTA (default 48kB)
-gpgpu_shmem_size                   98304 # Size of shared memory per shader core (default 16kB)
-gpgpu_adaptive_cache_config            536870913 # adaptive_cache_config
-gpgpu_shmem_sizeDefault                98304 # Size of shared memory per shader core (default 16kB)
-gpgpu_shmem_size_PrefL1                16384 # Size of shared memory per shader core (default 16kB)
-gpgpu_shmem_size_PrefShared                16384 # Size of shared memory per shader core (default 16kB)
-gpgpu_shmem_num_banks                   32 # Number of banks in the shared memory in each shader core (default 16)
-gpgpu_shmem_limited_broadcast                    0 # Limit shared memory to do one broadcast per cycle (default on)
-gpgpu_shmem_warp_parts                    1 # Number of portions a warp is divided into for shared memory bank conflict check 
-gpgpu_mem_unit_ports                    1 # The number of memory transactions allowed per core cycle
-gpgpu_shmem_warp_parts                    1 # Number of portions a warp is divided into for shared memory bank conflict check 
-gpgpu_warpdistro_shader                   -1 # Specify which shader core to collect the warp size distribution from
-gpgpu_warp_issue_shader                    0 # Specify which shader core to collect the warp issue distribution from
-gpgpu_local_mem_map                    1 # Mapping from local memory space address to simulated GPU physical address space (default = enabled)
-gpgpu_num_reg_banks                   16 # Number of register banks (default = 8)
-gpgpu_reg_bank_use_warp_id                    0 # Use warp ID in mapping registers to banks (default = off)
-gpgpu_sub_core_model                    1 # Sub Core Volta/Pascal model (default = off)
-gpgpu_enable_specialized_operand_collector                    0 # enable_specialized_operand_collector
-gpgpu_operand_collector_num_units_sp                    4 # number of collector units (default = 4)
-gpgpu_operand_collector_num_units_dp                    0 # number of collector units (default = 0)
-gpgpu_operand_collector_num_units_sfu                    4 # number of collector units (default = 4)
-gpgpu_operand_collector_num_units_int                    0 # number of collector units (default = 0)
-gpgpu_operand_collector_num_units_tensor_core                    4 # number of collector units (default = 4)
-gpgpu_operand_collector_num_units_mem                    2 # number of collector units (default = 2)
-gpgpu_operand_collector_num_units_gen                    8 # number of collector units (default = 0)
-gpgpu_operand_collector_num_in_ports_sp                    1 # number of collector unit in ports (default = 1)
-gpgpu_operand_collector_num_in_ports_dp                    0 # number of collector unit in ports (default = 0)
-gpgpu_operand_collector_num_in_ports_sfu                    1 # number of collector unit in ports (default = 1)
-gpgpu_operand_collector_num_in_ports_int                    0 # number of collector unit in ports (default = 0)
-gpgpu_operand_collector_num_in_ports_tensor_core                    1 # number of collector unit in ports (default = 1)
-gpgpu_operand_collector_num_in_ports_mem                    1 # number of collector unit in ports (default = 1)
-gpgpu_operand_collector_num_in_ports_gen                    8 # number of collector unit in ports (default = 0)
-gpgpu_operand_collector_num_out_ports_sp                    1 # number of collector unit in ports (default = 1)
-gpgpu_operand_collector_num_out_ports_dp                    0 # number of collector unit in ports (default = 0)
-gpgpu_operand_collector_num_out_ports_sfu                    1 # number of collector unit in ports (default = 1)
-gpgpu_operand_collector_num_out_ports_int                    0 # number of collector unit in ports (default = 0)
-gpgpu_operand_collector_num_out_ports_tensor_core                    1 # number of collector unit in ports (default = 1)
-gpgpu_operand_collector_num_out_ports_mem                    1 # number of collector unit in ports (default = 1)
-gpgpu_operand_collector_num_out_ports_gen                    8 # number of collector unit in ports (default = 0)
-gpgpu_coalesce_arch                   60 # Coalescing arch (GT200 = 13, Fermi = 20)
-gpgpu_num_sched_per_core                    4 # Number of warp schedulers per core
-gpgpu_max_insn_issue_per_warp                    1 # Max number of instructions that can be issued per warp in one cycle by scheduler (either 1 or 2)
-gpgpu_dual_issue_diff_exec_units                    1 # should dual issue use two different execution unit resources (Default = 1)
-gpgpu_simt_core_sim_order                    1 # Select the simulation order of cores in a cluster (0=Fix, 1=Round-Robin)
-gpgpu_pipeline_widths 4,4,4,4,4,4,4,4,4,4,8,4,4 # Pipeline widths ID_OC_SP,ID_OC_DP,ID_OC_INT,ID_OC_SFU,ID_OC_MEM,OC_EX_SP,OC_EX_DP,OC_EX_INT,OC_EX_SFU,OC_EX_MEM,EX_WB,ID_OC_TENSOR_CORE,OC_EX_TENSOR_CORE
-gpgpu_tensor_core_avail                    1 # Tensor Core Available (default=0)
-gpgpu_num_sp_units                     4 # Number of SP units (default=1)
-gpgpu_num_dp_units                     4 # Number of DP units (default=0)
-gpgpu_num_int_units                    4 # Number of INT units (default=0)
-gpgpu_num_sfu_units                    4 # Number of SF units (default=1)
-gpgpu_num_tensor_core_units                    4 # Number of tensor_core units (default=1)
-gpgpu_num_mem_units                    1 # Number if ldst units (default=1) WARNING: not hooked up to anything
-gpgpu_scheduler                      gto # Scheduler configuration: < lrr | gto | two_level_active > If two_level_active:<num_active_warps>:<inner_prioritization>:<outer_prioritization>For complete list of prioritization values see shader.h enum scheduler_prioritization_typeDefault: gto
-gpgpu_concurrent_kernel_sm                    0 # Support concurrent kernels on a SM (default = disabled)
-gpgpu_perfect_inst_const_cache                    1 # perfect inst and const cache mode, so all inst and const hits in the cache(default = disabled)
-gpgpu_inst_fetch_throughput                    4 # the number of fetched intruction per warp each cycle
-gpgpu_reg_file_port_throughput                    2 # the number ports of the register file
-specialized_unit_1         0,4,4,4,4,BRA # specialized unit config {<enabled>,<num_units>:<latency>:<initiation>,<ID_OC_SPEC>:<OC_EX_SPEC>,<NAME>}
-specialized_unit_2         0,4,4,4,4,BRA # specialized unit config {<enabled>,<num_units>:<latency>:<initiation>,<ID_OC_SPEC>:<OC_EX_SPEC>,<NAME>}
-specialized_unit_3         0,4,4,4,4,BRA # specialized unit config {<enabled>,<num_units>:<latency>:<initiation>,<ID_OC_SPEC>:<OC_EX_SPEC>,<NAME>}
-specialized_unit_4         0,4,4,4,4,BRA # specialized unit config {<enabled>,<num_units>:<latency>:<initiation>,<ID_OC_SPEC>:<OC_EX_SPEC>,<NAME>}
-specialized_unit_5         0,4,4,4,4,BRA # specialized unit config {<enabled>,<num_units>:<latency>:<initiation>,<ID_OC_SPEC>:<OC_EX_SPEC>,<NAME>}
-specialized_unit_6         0,4,4,4,4,BRA # specialized unit config {<enabled>,<num_units>:<latency>:<initiation>,<ID_OC_SPEC>:<OC_EX_SPEC>,<NAME>}
-specialized_unit_7         0,4,4,4,4,BRA # specialized unit config {<enabled>,<num_units>:<latency>:<initiation>,<ID_OC_SPEC>:<OC_EX_SPEC>,<NAME>}
-specialized_unit_8         0,4,4,4,4,BRA # specialized unit config {<enabled>,<num_units>:<latency>:<initiation>,<ID_OC_SPEC>:<OC_EX_SPEC>,<NAME>}
-gpgpu_perf_sim_memcpy                    1 # Fill the L2 cache on memcpy
-gpgpu_simple_dram_model                    0 # simple_dram_model with fixed latency and BW
-gpgpu_dram_scheduler                    1 # 0 = fifo, 1 = FR-FCFS (defaul)
-gpgpu_dram_partition_queues          64:64:64:64 # i2$:$2d:d2$:$2i
-l2_ideal                               0 # Use a ideal L2 cache that always hit
-gpgpu_cache:dl2     S:32:128:24,L:B:m:L:P,A:192:4,32:0,32 # unified banked L2 data cache config  {<nsets>:<bsize>:<assoc>,<rep>:<wr>:<alloc>:<wr_alloc>,<mshr>:<N>:<merge>,<mq>}
-gpgpu_cache:dl2_texture_only                    0 # L2 cache used for texture only
-gpgpu_n_mem                           32 # number of memory modules (e.g. memory controllers) in gpu
-gpgpu_n_sub_partition_per_mchannel                    2 # number of memory subpartition in each memory module
-gpgpu_n_mem_per_ctrlr                    1 # number of memory chips per memory controller
-gpgpu_memlatency_stat                   14 # track and display latency statistics 0x2 enables MC, 0x4 enables queue logs
-gpgpu_frfcfs_dram_sched_queue_size                   64 # 0 = unlimited (default); # entries per chip
-gpgpu_dram_return_queue_size                  192 # 0 = unlimited (default); # entries per chip
-gpgpu_dram_buswidth                   16 # default = 4 bytes (8 bytes per cycle at DDR)
-gpgpu_dram_burst_length                    2 # Burst length of each DRAM request (default = 4 data bus cycle)
-dram_data_command_freq_ratio                    2 # Frequency ratio between DRAM data bus and command bus (default = 2 times, i.e. DDR)
-gpgpu_dram_timing_opt nbk=16:CCD=1:RRD=3:RCD=12:RAS=28:RP=12:RC=40: CL=12:WL=2:CDLR=3:WR=10:nbkgrp=4:CCDL=2:RTPL=3 # DRAM timing parameters = {nbk:tCCD:tRRD:tRCD:tRAS:tRP:tRC:CL:WL:tCDLR:tWR:nbkgrp:tCCDL:tRTPL}
-gpgpu_l2_rop_latency                  160 # ROP queue latency (default 85)
-dram_latency                         200 # DRAM latency (default 30)
-dram_write_latency                   600 # DRAM write latency (default 100)
-dram_dual_bus_interface                    1 # dual_bus_interface (default = 0) 
-dram_bnk_indexing_policy                    0 # dram_bnk_indexing_policy (0 = normal indexing, 1 = Xoring with the higher bits) (Default = 0)
-dram_bnkgrp_indexing_policy                    1 # dram_bnkgrp_indexing_policy (0 = take higher bits, 1 = take lower bits) (Default = 0)
-dram_seperate_write_queue_enable                    0 # Seperate_Write_Queue_Enable
-dram_write_queue_size             32:28:16 # Write_Queue_Size
-dram_elimnate_rw_turnaround                    0 # elimnate_rw_turnaround i.e set tWTR and tRTW = 0
-icnt_flit_size                        40 # icnt_flit_size
-gpgpu_mem_addr_mapping dramid@8;00000000.00000000.00000000.00000000.0000RRRR.RRRRRRRR.RBBBCCCB.CCCSSSSS # mapping memory address to dram model {dramid@<start bit>;<memory address map>}
-gpgpu_mem_addr_test                    0 # run sweep test to check address mapping for aliased address
-gpgpu_mem_address_mask                    1 # 0 = old addressing mask, 1 = new addressing mask, 2 = new add. mask + flipped bank sel and chip sel bits
-gpgpu_memory_partition_indexing                    0 # 0 = no indexing, 1 = bitwise xoring, 2 = IPoly, 3 = custom indexing
-gpuwattch_xml_file         gpuwattch.xml # GPUWattch XML file
-power_simulation_enabled                    0 # Turn on power simulator (1=On, 0=Off)
-power_per_cycle_dump                    0 # Dump detailed power output each cycle
-power_trace_enabled                    0 # produce a file for the power trace (1=On, 0=Off)
-power_trace_zlevel                     6 # Compression level of the power trace output log (0=no comp, 9=highest)
-steady_power_levels_enabled                    0 # produce a file for the steady power levels (1=On, 0=Off)
-steady_state_definition                  8:4 # allowed deviation:number of samples
-gpgpu_max_cycle                        0 # terminates gpu simulation early (0 = no limit)
-gpgpu_max_insn                         0 # terminates gpu simulation early (0 = no limit)
-gpgpu_max_cta                          0 # terminates gpu simulation early (0 = no limit)
-gpgpu_max_completed_cta                 2700 # terminates gpu simulation early (0 = no limit)
-gpgpu_runtime_stat                   500 # display runtime statistics such as dram utilization {<freq>:<flag>}
-liveness_message_freq                    1 # Minimum number of seconds between simulation liveness messages (0 = always print)
-gpgpu_compute_capability_major                    7 # Major compute capability version number
-gpgpu_compute_capability_minor                    0 # Minor compute capability version number
-gpgpu_flush_l1_cache                    1 # Flush L1 cache at the end of each kernel call
-gpgpu_flush_l2_cache                    0 # Flush L2 cache at the end of each kernel call
-gpgpu_deadlock_detect                    1 # Stop the simulation at deadlock (1=on (default), 0=off)
-gpgpu_ptx_instruction_classification                    0 # if enabled will classify ptx instruction types per kernel (Max 255 kernels now)
-gpgpu_ptx_sim_mode                     0 # Select between Performance (default) or Functional simulation (1)
-gpgpu_clock_domains 1132.0:1132.0:1132.0:850.0 # Clock Domain Frequencies in MhZ {<Core Clock>:<ICNT Clock>:<L2 Clock>:<DRAM Clock>}
-gpgpu_max_concurrent_kernel                    8 # maximum kernels that can run concurrently on GPU
-gpgpu_cflog_interval                    0 # Interval between each snapshot in control flow logger
-visualizer_enabled               48e293453df1fbca85f95b4ef3d81d0c  /home/pli11/Videos/parboil_benchmark/parboil/benchmarks/mri-gridding/build/nvm_ssort_default/mri-gridding
Extracting PTX file and ptxas options    1: mri-gridding.1.sm_70.ptx -arch=sm_70
Extracting PTX file and ptxas options    2: mri-gridding.2.sm_70.ptx -arch=sm_70
      0 # Turn on visualizer output (1=On, 0=Off)
-visualizer_outputfile                 NULL # Specifies the output log file for visualizer
-visualizer_zlevel                      6 # Compression level of the visualizer output log (0=no comp, 9=highest)
-gpgpu_stack_size_limit                 1024 # GPU thread stack size
-gpgpu_heap_size_limit              8388608 # GPU malloc heap size 
-gpgpu_runtime_sync_depth_limit                    2 # GPU device runtime synchronize depth
-gpgpu_runtime_pending_launch_count_limit                 2048 # GPU device runtime pending launch count
-trace_enabled                          0 # Turn on traces
-trace_components                    none # comma seperated list of traces to enable. Complete list found in trace_streams.tup. Default none
-trace_sampling_core                    0 # The core which is printed using CORE_DPRINTF. Default 0
-trace_sampling_memory_partition                   -1 # The memory partition which is printed using MEMPART_DPRINTF. Default -1 (i.e. all)
-enable_ptx_file_line_stats                    1 # Turn on PTX source line statistic profiling. (1 = On)
-ptx_line_stats_filename gpgpu_inst_stats.txt # Output file for PTX source line statistics.
-gpgpu_kernel_launch_latency                 5000 # Kernel launch latency in cycles. Default: 0
-gpgpu_cdp_enabled                      0 # Turn on CDP
-gpgpu_TB_launch_latency                    0 # thread block launch latency in cycles. Default: 0
DRAM Timing Options:
nbk                                    16 # number of banks
CCD                                     1 # column to column delay
RRD                                     3 # minimal delay between activation of rows in different banks
RCD                                    12 # row to column delay
RAS                                    28 # time needed to activate row
RP                                     12 # time needed to precharge (deactivate) row
RC                                     40 # row cycle time
CDLR                                    3 # switching from write to read (changes tWTR)
WR                                     10 # last data-in to row precharge
CL                                     12 # CAS latency
WL                                      2 # Write latency
nbkgrp                                  4 # number of bank groups
CCDL                                    2 # column to column delay between accesses to different bank groups
RTPL                                    3 # read to precharge delay between accesses to different bank groups
Total number of memory sub partition = 64
addr_dec_mask[CHIP]  = 0000000000001f00 	high:13 low:8
addr_dec_mask[BK]    = 00000000000e2000 	high:20 low:13
addr_dec_mask[ROW]   = 00000001fff00000 	high:33 low:20
addr_dec_mask[COL]   = 000000000001c0ff 	high:17 low:0
addr_dec_mask[BURST] = 000000000000001f 	high:5 low:0
sub_partition_id_mask = 0000000000002000
GPGPU-Sim uArch: clock freqs: 1132000000.000000:1132000000.000000:1132000000.000000:850000000.000000
GPGPU-Sim uArch: clock periods: 0.00000000088339222615:0.00000000088339222615:0.00000000088339222615:0.00000000117647058824
*** Initializing Memory Statistics ***
GPGPU-Sim uArch: performance model initialization complete.
self exe links to: /home/pli11/Videos/parboil_benchmark/parboil/benchmarks/mri-gridding/build/nvm_ssort_default/mri-gridding
self exe links to: /home/pli11/Videos/parboil_benchmark/parboil/benchmarks/mri-gridding/build/nvm_ssort_default/mri-gridding
10.1
GPGPU-Sim PTX: __cudaRegisterFatBinary, fat_cubin_handle = 1, filename=default
self exe links to: /home/pli11/Videos/parboil_benchmark/parboil/benchmarks/mri-gridding/build/nvm_ssort_default/mri-gridding
Running md5sum using "md5sum /home/pli11/Videos/parboil_benchmark/parboil/benchmarks/mri-gridding/build/nvm_ssort_default/mri-gridding "
self exe links to: /home/pli11/Videos/parboil_benchmark/parboil/benchmarks/mri-gridding/build/nvm_ssort_default/mri-gridding
Extracting specific PTX file named mri-gridding.1.sm_70.ptx 
Extracting specific PTX file named mri-gridding.2.sm_70.ptx 
EExtracting PTX file and ptxas options    3: mri-gridding.3.sm_70.ptx -arch=sm_70
Extracting PTX file and ptxas options    4: mri-gridding.4.sm_70.ptx -arch=sm_70
xtracting specific PTX file named mri-gridding.3.sm_70.ptx 
Extracting specific PTX file named mri-gridding.4.sm_70.ptx 
self exe links to: /home/pli11/Videos/parboil_benchmark/parboil/benchmarks/mri-gridding/build/nvm_ssort_default/mri-gridding
self exe links to: /home/pli11/Videos/parboil_benchmark/parboil/benchmarks/mri-gridding/build/nvm_ssort_default/mri-gridding
10.1
GPGPU-Sim PTX: __cudaRegisterFatBinary, fat_cubin_handle = 2, filename=default
GPGPU-Sim PTX: __cudaRegisterFunction _Z17gridding_GPU_nvmbP20ReconstructionSamplePjP6float2Pff : hostFun 0x0x404c94, fat_cubin_handle = 2
GPGPU-Sim PTX: Parsing mri-gridding.1.sm_70.ptx
GPGPU-Sim PTX: finished parsing EMBEDDED .ptx file mri-gridding.1.sm_70.ptx
GPGPU-Sim PTX: Parsing mri-gridding.2.sm_70.ptx
GPGPU-Sim PTX: allocating constant region for "cutoff2_c" from 0x100 to 0x104 (global memory space) 1
GPGPU-Sim PTX: allocating constant region for "cutoff_c" from 0x104 to 0x108 (global memory space) 2
GPGPU-Sim PTX: allocating constant region for "gridSize_c" from 0x180 to 0x18c (global memory space) 3
GPGPU-Sim PTX: allocating constant region for "size_xy_c" from 0x18c to 0x190 (global memory space) 4
GPGPU-Sim PTX: allocating constant region for "_1overCutoff2_c" from 0x190 to 0x194 (global memory space) 5
GPGPU-Sim PTX: allocating global region for "NVM_log" from 0x200 to 0x4000200 (global memory space)
GPGPU-Sim PTX: allocating global region for "NVM_flag" from 0x4000200 to 0x4400200 (global memory space)
GPGPU-Sim PTX: instruction assembly for function '_Z14binning_kerneljP20ReconstructionSamplePjS1_S1_jj'...   done.
GPGPU-Sim PTX: instruction assembly for function '_Z19binning_kernel_nvmbjP20ReconstructionSamplePjS1_S1_jj'...   done.
GPGPU-Sim PTX: instruction assembly for function '_Z19binning_kernel_nvmdjP20ReconstructionSamplePjS1_S1_jj'...   done.
GPGPU-Sim PTX: instruction assembly for function '_Z14reorder_kerneliPjP20ReconstructionSampleS1_'...   done.
GPGPU-Sim PTX: instruction assembly for function '_Z19reorder_kernel_nvmaiPjP20ReconstructionSampleS1_'...   done.
GPGPU-Sim PTX: instruction assembly for function '_Z19reorder_kernel_nvmbiPjP20ReconstructionSampleS1_'...   done.
GPGPU-Sim PTX: instruction assembly for function '_Z19reorder_kernel_nvmdiPjP20ReconstructionSampleS1_'...   done.
GPGPU-Sim PTX: instruction assembly for function '_Z19reorder_kernel_nvmgiPjP20ReconstructionSampleS1_'...   done.
GPGPU-Sim PTX: instruction assembly for function '_Z19reorder_kernel_nvmiiPjP20ReconstructionSampleS1_'...   done.
GPGPU-Sim PTX: allocating shared region for "_ZZ12gridding_GPUP20ReconstructionSamplePjP6float2PffE9sharedBin" from 0x0 to 0x600 (shared memory space)
GPGPU-Sim PTX: instruction assembly for function '_Z12gridding_GPUP20ReconstructionSamplePjP6float2Pff'...   done.
GPGPU-Sim PTX: allocating stack frame region for .local "__local_depot10" from 0x0 to 0x8
GPGPU-Sim PTX: allocating shared region for "_ZZ17gridding_GPU_nvmaP20ReconstructionSamplePjP6float2PffE9sharedBin" from 0x0 to 0x600 (shared memory space)
GPGPU-Sim PTX: instruction assembly for function '_Z17gridding_GPU_nvmaP20ReconstructionSamplePjP6float2Pff'...   done.
GPGPU-Sim PTX: allocating stack frame region for .local "__local_depot11" from 0x0 to 0x8
GPGPU-Sim PTX: allocating shared region for "_ZZ17gridding_GPU_nvmbP20ReconstructionSamplePjP6float2PffE9sharedBin" from 0x0 to 0x600 (shared memory space)
GPGPU-Sim PTX: instruction assembly for function '_Z17gridding_GPU_nvmbP20ReconstructionSamplePjP6float2Pff'...   done.
GPGPU-Sim PTX: finished parsing EMBEDDED .ptx file mri-gridding.2.sm_70.ptx
GPGPU-Sim PTX: Parsing mri-gridding.3.sm_70.ptx
GPGPU-Sim PTX: allocating shared region for "s_data" from 0x0 to 0x0 (shared memory space)
GPGPU-Sim PTX: allocating shared region for "_ZZ14scan_L1_kerneljPjS_E6s_data" from 0x0 to 0x1110 (shared memory space)
GPGPU-Sim PTX: instruction assembly for function '_Z14scan_L1_kerneljPjS_'...   done.
GPGPU-Sim PTX: instruction assembly for function '_Z18scan_inter1_kernelPjj'...   done.
GPGPU-Sim PTX: instruction assembly for function '_Z18scan_inter2_kernelPjj'...   done.
GPGPU-Sim PTX: allocating shared region for "_ZZ10uniformAddjPjS_E3uni" from 0x0 to 0x4 (shared memory space)
GPGPU-Sim PTX: instruction assembly for function '_Z10uniformAddjPjS_'...   done.
GPGPU-Sim PTX: finished parsing EMBEDDED .ptx file mri-gridding.3.sm_70.ptx
GPGPU-Sim PTX: Parsing mri-gridding.4.sm_70.ptx
GPGPU-Sim PTX: allocating global region for "NVM_log1" from 0x4400200 to 0x8400200 (global memory space)
GPGPU-Sim PTX: allocating global region for "NVM_log2" from 0x8400200 to 0xc400200 (global memory space)
GPGPU-Sim PTX: allocating global region for "NVM_log3" from 0xc400200 to 0x10400200 (global memory space)
GPGPU-Sim PTX: Warning NVM_flag was declared previous at mri-gridding.2.sm_70.ptx:20 skipping new declaration
GPGPU-Sim PTX: allocating shared region for "_ZZ9splitSortiiPjS_S_E5flags" from 0x0 to 0x1144 (shared memory space)
GPGPU-Sim PTX: allocating shared region for "_ZZ9splitSortiiPjS_S_E7histo_s" from 0x1180 to 0x11c0 (shared memory space)
GPGPU-Sim PTX: instruction assembly for function '_Z9splitSortiiPjS_S_'...   done.
GPGPU-Sim PTX: allocating shared region for "_ZZ14splitSort_nvmoiiPjS_S_E5flags" from 0x0 to 0x1144 (shared memory space)
GPGPU-Sim PTX: allocating shared region for "_ZZ14splitSort_nvmoiiPjS_S_E7histo_s" from 0x1180 to 0x11c0 (shared memory space)
GPGPU-Sim PTX: instruction assembly for function '_Z14splitSort_nvmoiiPjS_S_'...   done.
GPGPU-Sim PTX: allocating shared region for "_ZZ14splitSort_nvmqiiPjS_S_E5flags" from 0x0 to 0x1144 (shared memory space)
GPGPU-Sim PTX: allocating shared region for "_ZZ14splitSort_nvmqiiPjS_S_E7histo_s" from 0x1180 to 0x11c0 (shared memory space)
GPGPU-Sim PTX: instruction assembly for function '_Z14splitSort_nvmqiiPjS_S_'...   done.
GPGPU-Sim PTX: allocating shared region for "_ZZ14splitSort_nvmuiiPjS_S_E5flags" from 0x0 to 0x1144 (shared memory space)
GPGPU-Sim PTX: allocating shared region for "_ZZ14splitSort_nvmuiiPjS_S_E7histo_s" from 0x1180 to 0x11c0 (shared memory space)
GPGPU-Sim PTX: instruction assembly for function '_Z14splitSort_nvmuiiPjS_S_'...   done.
GPGPU-Sim PTX: allocating shared region for "_ZZ14splitSort_nvmwiiPjS_S_E5flags" from 0x0 to 0x1144 (shared memory space)
GPGPU-Sim PTX: allocating shared region for "_ZZ14splitSort_nvmwiiPjS_S_E7histo_s" from 0x1180 to 0x11c0 (shared memory space)
GPGPU-Sim PTX: instruction assembly for function '_Z14splitSort_nvmwiiPjS_S_'...   done.
GPGPU-Sim PTX: allocating shared region for "_ZZ14splitSort_nvm1iiPjS_S_E5flags" from 0x0 to 0x1144 (shared memory space)
GPGPU-Sim PTX: allocating shared region for "_ZZ14splitSort_nvm1iiPjS_S_E7histo_s" from 0x1180 to 0x11c0 (shared memory space)
GPGPU-Sim PTX: instruction assembly for function '_Z14splitSort_nvm1iiPjS_S_'...   done.
GPGPU-Sim PTX: allocating shared region for "_ZZ14splitSort_nvm2iiPjS_S_E5flags" from 0x0 to 0x1144 (shared memory space)
GPGPU-Sim PTX: allocating shared region for "_ZZ14splitSort_nvm2iiPjS_S_E7histo_s" from 0x1180 to 0x11c0 (shared memory space)
GPGPU-Sim PTX: instruction assembly for function '_Z14splitSort_nvm2iiPjS_S_'...   done.
GPGPU-Sim PTX: allocating shared region for "_ZZ14splitSort_nvmbiiPjS_S_E5flags" from 0x0 to 0x1144 (shared memory space)
GPGPU-Sim PTX: allocating shared region for "_ZZ14splitSort_nvmbiiPjS_S_E7histo_s" from 0x1180 to 0x11c0 (shared memory space)
GPGPU-Sim PTX: instruction assembly for function '_Z14splitSort_nvmbiiPjS_S_'...   done.
GPGPU-Sim PTX: allocating shared region for "_ZZ14splitSort_nvmdiiPjS_S_E5flags" from 0x0 to 0x1144 (shared memory space)
GPGPU-Sim PTX: allocating shared region for "_ZZ14splitSort_nvmdiiPjS_S_E7histo_s" from 0x1180 to 0x11c0 (shared memory space)
GPGPU-Sim PTX: instruction assembly for function '_Z14splitSort_nvmdiiPjS_S_'...   done.
GPGPU-Sim PTX: allocating shared region for "_ZZ19splitRearrange_nvmbiiPjS_S_S_S_E7histo_s" from 0x0 to 0x40 (shared memory space)
GPGPU-Sim PTX: allocating shared region for "_ZZ19splitRearrange_nvmbiiPjS_S_S_S_E7array_s" from 0x80 to 0x1080 (shared memory space)
GPGPU-Sim PTX: instruction assembly for function '_Z19splitRearrange_nvmbiiPjS_S_S_S_'...   done.
GPGPU-Sim PTX: allocating shared region for "_ZZ19splitRearrange_nvmdiiPjS_S_S_S_E7histo_s" from 0x0 to 0x40 (shared memory space)
GPGPU-Sim PTX: allocating shared region for "_ZZ19splitRearrange_nvmdiiPjS_S_S_S_E7array_s" from 0x80 to 0x1080 (shared memory space)
GPGPU-Sim PTX: instruction assembly for function '_Z19splitRearrange_nvmdiiPjS_S_S_S_'...   done.
GPGPU-Sim PTX: allocating shared region for "_ZZ19splitRearrange_nvmoiiPjS_S_S_S_E7histo_s" from 0x0 to 0x40 (shared memory space)
GPGPU-Sim PTX: allocating shared region for "_ZZ19splitRearrange_nvmoiiPjS_S_S_S_E7array_s" from 0x80 to 0x1080 (shared memory space)
GPGPU-Sim PTX: instruction assembly for function '_Z19splitRearrange_nvmoiiPjS_S_S_S_'...   done.
GPGPU-Sim PTX: allocating shared region for "_ZZ19splitRearrange_nvmqiiPjS_S_S_S_E7histo_s" from 0x0 to 0x40 (shared memory space)
GPGPU-Sim PTX: allocating shared region for "_ZZ19splitRearrange_nvmqiiPjS_S_S_S_E7array_s" from 0x80 to 0x1080 (shared memory space)
GPGPU-Sim PTX: instruction assembly for function '_Z19splitRearrange_nvmqiiPjS_S_S_S_'...   done.
GPGPU-Sim PTX: allocating shared region for "_ZZ19splitRearrange_nvmuiiPjS_S_S_S_E7histo_s" from 0x0 to 0x40 (shared memory space)
GPGPU-Sim PTX: allocating shared region for "_ZZ19splitRearrange_nvmuiiPjS_S_S_S_E7array_s" from 0x80 to 0x1080 (shared memory space)
GPGPU-Sim PTX: instruction assembly for function '_Z19splitRearrange_nvmuiiPjS_S_S_S_'...   done.
GPGPU-Sim PTX: allocating shared region for "_ZZ19splitRearrange_nvmwiiPjS_S_S_S_E7histo_s" from 0x0 to 0x40 (shared memory space)
GPGPU-Sim PTX: allocating shared region for "_ZZ19splitRearrange_nvmwiiPjS_S_S_S_E7array_s" from 0x80 to 0x1080 (shared memory space)
GPGPU-Sim PTX: instruction assembly for function '_Z19splitRearrange_nvmwiiPjS_S_S_S_'...   done.
GPGPU-Sim PTX: allocating shared region for "_ZZ19splitRearrange_nvm1iiPjS_S_S_S_E7histo_s" from 0x0 to 0x40 (shared memory space)
GPGPU-Sim PTX: allocating shared region for "_ZZ19splitRearrange_nvm1iiPjS_S_S_S_E7array_s" from 0x80 to 0x1080 (shared memory space)
GPGPU-Sim PTX: instruction assembly for function '_Z19splitRearrange_nvm1iiPjS_S_S_S_'...   done.
GPGPU-Sim PTX: allocating shared region for "_ZZ19splitRearrange_nvm2iiPjS_S_S_S_E7histo_s" from 0x0 to 0x40 (shared memory space)
GPGPU-Sim PTX: allocating shared region for "_ZZ19splitRearrange_nvm2iiPjS_S_S_S_E7array_s" from 0x80 to 0x1080 (shared memory space)
GPGPU-Sim PTX: instruction assembly for function '_Z19splitRearrange_nvm2iiPjS_S_S_S_'...   done.
GPGPU-Sim PTX: allocating shared region for "_ZZ14splitSort_nvmgiiPjS_S_E5flags" from 0x0 to 0x1144 (shared memory space)
GPGPU-Sim PTX: allocating shared region for "_ZZ14splitSort_nvmgiiPjS_S_E7histo_s" from 0x1180 to 0x11c0 (shared memory space)
GPGPU-Sim PTX: instruction assembly for function '_Z14splitSort_nvmgiiPjS_S_'...   done.
GPGPU-Sim PTX: allocating shared region for "_ZZ14splitSort_nvm3iiPjS_S_E5flags" from 0x0 to 0x1144 (shared memory space)
GPGPU-Sim PTX: allocating shared region for "_ZZ14splitSort_nvm3iiPjS_S_E7histo_s" from 0x1180 to 0x11c0 (shared memory space)
GPGPU-Sim PTX: instruction assembly for function '_Z14splitSort_nvm3iiPjS_S_'...   done.
GPGPU-Sim PTX: allocating shared region for "_ZZ14splitSort_nvm4iiPjS_S_E5flags" from 0x0 to 0x1144 (shared memory space)
GPGPU-Sim PTX: allocating shared region for "_ZZ14splitSort_nvm4iiPjS_S_E7histo_s" from 0x1180 to 0x11c0 (shared memory space)
GPGPU-Sim PTX: instruction assembly for function '_Z14splitSort_nvm4iiPjS_S_'...   done.
GPGPU-Sim PTX: allocating shared region for "_ZZ14splitSort_nvmiiiPjS_S_E5flags" from 0x0 to 0x1144 (shared memory space)
GPGPU-Sim PTX: allocating shared region for "_ZZ14splitSort_nvmiiiPjS_S_E7histo_s" from 0x1180 to 0x11c0 (shared memory space)
GPGPU-Sim PTX: instruction assembly for function '_Z14splitSort_nvmiiiPjS_S_'...   done.
GPGPU-Sim PTX: allocating shared region for "_ZZ14splitSort_nvm5iiPjS_S_E5flags" from 0x0 to 0x1144 (shared memory space)
GPGPU-Sim PTX: allocating shared region for "_ZZ14splitSort_nvm5iiPjS_S_E7histo_s" from 0x1180 to 0x11c0 (shared memory space)
GPGPU-Sim PTX: instruction assembly for function '_Z14splitSort_nvm5iiPjS_S_'...   done.
GPGPU-Sim PTX: allocating shared region for "_ZZ14splitSort_nvm6iiPjS_S_E5flags" from 0x0 to 0x1144 (shared memory space)
GPGPU-Sim PTX: allocating shared region for "_ZZ14splitSort_nvm6iiPjS_S_E7histo_s" from 0x1180 to 0x11c0 (shared memory space)
GPGPU-Sim PTX: instruction assembly for function '_Z14splitSort_nvm6iiPjS_S_'...   done.
GPGPU-Sim PTX: allocating shared region for "_ZZ19splitRearrange_nvmgiiPjS_S_S_S_E7histo_s" from 0x0 to 0x40 (shared memory space)
GPGPU-Sim PTX: allocating shared region for "_ZZ19splitRearrange_nvmgiiPjS_S_S_S_E7array_s" from 0x80 to 0x1080 (shared memory space)
GPGPU-Sim PTX: instruction assembly for function '_Z19splitRearrange_nvmgiiPjS_S_S_S_'...   done.
GPGPU-Sim PTX: allocating shared region for "_ZZ19splitRearrange_nvm3iiPjS_S_S_S_E7histo_s" from 0x0 to 0x40 (shared memory space)
GPGPU-Sim PTX: allocating shared region for "_ZZ19splitRearrange_nvm3iiPjS_S_S_S_E7array_s" from 0x80 to 0x1080 (shared memory space)
GPGPU-Sim PTX: instruction assembly for function '_Z19splitRearrange_nvm3iiPjS_S_S_S_'...   done.
GPGPU-Sim PTX: allocating shared region for "_ZZ19splitRearrange_nvm4iiPjS_S_S_S_E7histo_s" from 0x0 to 0x40 (shared memory space)
GPGPU-Sim PTX: allocating shared region for "_ZZ19splitRearrange_nvm4iiPjS_S_S_S_E7array_s" from 0x80 to 0x1080 (shared memory space)
GPGPU-Sim PTX: instruction assembly for function '_Z19splitRearrange_nvm4iiPjS_S_S_S_'...   done.
GPGPU-Sim PTX: allocating shared region for "_ZZ19splitRearrange_nvmiiiPjS_S_S_S_E7histo_s" from 0x0 to 0x40 (shared memory space)
GPGPU-Sim PTX: allocating shared region for "_ZZ19splitRearrange_nvmiiiPjS_S_S_S_E7array_s" from 0x80 to 0x1080 (shared memory space)
GPGPU-Sim PTX: instruction assembly for function '_Z19splitRearrange_nvmiiiPjS_S_S_S_'...   done.
GPGPU-Sim PTX: allocating shared region for "_ZZ19splitRearrange_nvm6iiPjS_S_S_S_E7histo_s" from 0x0 to 0x40 (shared memory space)
GPGPU-Sim PTX: allocating shared region for "_ZZ19splitRearrange_nvm6iiPjS_S_S_S_E7array_s" from 0x80 to 0x1080 (shared memory space)
GPGPU-Sim PTX: instruction assembly for function '_Z19splitRearrange_nvm6iiPjS_S_S_S_'...   done.
GPGPU-Sim PTX: allocating shared region for "_ZZ19splitRearrange_nvm5iiPjS_S_S_S_E7histo_s" from 0x0 to 0x40 (shared memory space)
GPGPU-Sim PTX: allocating shared region for "_ZZ19splitRearrange_nvm5iiPjS_S_S_S_E7array_s" from 0x80 to 0x1080 (shared memory space)
GPGPU-Sim PTX: instruction assembly for function '_Z19splitRearrange_nvm5iiPjS_S_S_S_'...   done.
GPGPU-Sim PTX: allocating shared region for "_ZZ14splitRearrangeiiPjS_S_S_S_E7histo_s" from 0x0 to 0x40 (shared memory space)
GPGPU-Sim PTX: allocating shared region for "_ZZ14splitRearrangeiiPjS_S_S_S_E7array_s" from 0x80 to 0x1080 (shared memory space)
GPGPU-Sim PTX: instruction assembly for function '_Z14splitRearrangeiiPjS_S_S_S_'...   done.
GPGPU-Sim PTX: finished parsing EMBEDDED .ptx file mri-gridding.4.sm_70.ptx
GPGPU-Sim PTX: loading globals with explicit initializers... 
GPGPU-Sim PTX: finished loading globals (0 bytes total).
GPGPU-Sim PTX: loading constants with explicit initializers...  done.
GPGPU-Sim PTX: Loading PTXInfo from mri-gridding.1.sm_70.ptx
GPGPU-Sim PTX: Loading PTXInfo from mri-gridding.2.sm_70.ptx
GPGPU-Sim PTX: Binary info : gmem=71303168, cmem=28
GPGPU-Sim PTX: Kernel '_Z17gridding_GPU_nvmbP20ReconstructionSamplePjP6float2Pff' : regs=40, lmem=0, smem=1536, cmem=388
GPGPU-Sim PTX: Kernel '_Z17gridding_GPU_nvmaP20ReconstructionSamplePjP6float2Pff' : regs=40, lmem=0, smem=1536, cmem=388
GPGPU-Sim PTX: Kernel '_Z12gridding_GPUP20ReconstructionSamplePjP6float2Pff' : regs=39, lmem=0, smem=1536, cmem=388
GPGPU-Sim PTX: Kernel '_Z19reorder_kernel_nvmiiPjP20ReconstructionSampleS1_' : regs=24, lmem=0, smem=0, cmem=384
GPGPU-Sim PTX: Kernel '_Z19reorder_kernel_nvmgiPjP20ReconstructionSampleS1_' : regs=24, lmem=0, smem=0, cmem=384
GPGPU-Sim PTX: Kernel '_Z19reorder_kernel_nvmdiPjP20ReconstructionSampleS1_' : regs=22, lmem=0, smem=0, cmem=384
GPGPU-Sim PTX: Kernel '_Z19reorder_kernel_nvmbiPjP20ReconstructionSampleS1_' : regs=22, lmem=0, smem=0, cmem=384
GPGPU-Sim PTX: Kernel '_Z19reorder_kernel_nvmaiPjP20ReconstructionSampleS1_' : regs=22, lmem=0, smem=0, cmem=384
GPGPU-Sim PTX: Kernel '_Z14reorder_kerneliPjP20ReconstructionSampleS1_' : regs=22, lmem=0, smem=0, cmem=384
GPGPU-Sim PTX: Kernel '_Z19binning_kernel_nvmdjP20ReconstructionSamplePjS1_S1_jj' : regs=16, lmem=0, smem=0, cmem=400
GPGPU-Sim PTX: Kernel '_Z19binning_kernel_nvmbjP20ReconstructionSamplePjS1_S1_jj' : regs=16, lmem=0, smem=0, cmem=400
GPGPU-Sim PTX: Kernel '_Z14binning_kerneljP20ReconstructionSamplePjS1_S1_jj' : regs=16, lmem=0, smem=0, cmem=400
GPGPU-Sim PTX: Loading PTXInfo from mri-gridding.3.sm_70.ptx
GPGPU-Sim PTX: Kernel '_Z10uniformAddjPjS_' : regs=8, lmem=0, smem=16, cmem=376
GPGPU-Sim PTX: Kernel '_Z18scan_inter2_kernelPjj' : regs=19, lmem=0, smem=0, cmem=364
GPGPU-Sim PTX: Kernel '_Z18scan_inter1_kernelPjj' : regs=20, lmem=0, smem=0, cmem=364
GPGPU-Sim PTX: Kernel '_Z14scan_L1_kerneljPjS_' : regs=22, lmem=0, smem=4368, cmem=376
GPGPU-Sim PTX: Loading PTXInfo from mri-gridding.4.sm_70.ptx
GPGPU-Sim PTX: Kernel '_Z14splitRearrangeiiPjS_S_S_S_' : regs=28, lmem=0, smem=4160, cmem=400
GPGPU-Sim PTX: Kernel '_Z19splitRearrange_nvm5iiPjS_S_S_S_' : regs=28, lmem=0, smem=4160, cmem=400
GPGPU-Sim PTX: Kernel '_Z19splitRearrange_nvm6iiPjS_S_S_S_' : regs=28, lmem=0, smem=4160, cmem=400
GPGPU-Sim PTX: Kernel '_Z19splitRearrange_nvmiiiPjS_S_S_S_' : regs=30, lmem=0, smem=4160, cmem=400
GPGPU-Sim PTX: Kernel '_Z19splitRearrange_nvm4iiPjS_S_S_S_' : regs=32, lmem=0, smem=4160, cmem=400
GPGPU-Sim PTX: Kernel '_Z19splitRearrange_nvm3iiPjS_S_S_S_' : regs=32, lmem=0, smem=4160, cmem=400
GPGPU-Sim PTX: Kernel '_Z19splitRearrange_nvmgiiPjS_S_S_S_' : regs=32, lmem=0, smem=4160, cmem=400
GPGPU-Sim PTX: Kernel '_Z14splitSort_nvm6iiPjS_S_' : regs=48, lmem=0, smem=4484, cmem=384
GPGPU-Sim PTX: Kernel '_Z14splitSort_nvm5iiPjS_S_' : regs=48, lmem=0, smem=4484, cmem=384
GPGPU-Sim PTX: Kernel '_Z14splitSort_nvmiiiPjS_S_' : regs=48, lmem=0, smem=4484, cmem=384
GPGPU-Sim PTX: Kernel '_Z14splitSort_nvm4iiPjS_S_' : regs=48, lmem=0, smem=4484, cmem=384
GPGPU-Sim PTX: Kernel '_Z14splitSort_nvm3iiPjS_S_' : regs=48, lmem=0, smem=4484, cmem=384
GPGPU-Sim PTX: Kernel '_Z14splitSort_nvmgiiPjS_S_' : regs=43, lmem=0, smem=4484, cmem=384
GPGPU-Sim PTX: Kernel '_Z19splitRearrange_nvm2iiPjS_S_S_S_' : regs=30, lmem=0, smem=4160, cmem=400
GPGPU-Sim PTX: Kernel '_Z19splitRearrange_nvm1iiPjS_S_S_S_' : regs=30, lmem=0, smem=4160, cmem=400
GPGPU-Sim PTX: Kernel '_Z19splitRearrange_nvmwiiPjS_S_S_S_' : regs=28, lmem=0, smem=4160, cmem=400
GPGPU-Sim PTX: Kernel '_Z19splitRearrange_nvmuiiPjS_S_S_S_' : regs=26, lmem=0, smem=4160, cmem=400
GPGPU-Sim PTX: Kernel '_Z19splitRearrange_nvmqiiPjS_S_S_S_' : regs=28, lmem=0, smem=4160, cmem=400
GPGPU-Sim PTX: Kernel '_Z19splitRearrange_nvmoiiPjS_S_S_S_' : regs=26, lmem=0, smem=4160, cmem=400
GPGPU-Sim PTX: Kernel '_Z19splitRearrange_nvmdiiPjS_S_S_S_' : regs=28, lmem=0, smem=4160, cmem=400
GPGPU-Sim PTX: Kernel '_Z19splitRearrange_nvmbiiPjS_S_S_S_' : regs=26, lmem=0, smem=4160, cmem=400
GPGPU-Sim PTX: Kernel '_Z14splitSort_nvmdiiPjS_S_' : regs=43, lmem=0, smem=4484, cmem=384
GPGPU-Sim PTX: Kernel '_Z14splitSort_nvmbiiPjS_S_' : regs=43, lmem=0, smem=4484, cmem=384
GPGPU-Sim PTX: Kernel '_Z14splitSort_nvm2iiPjS_S_' : regs=43, lmem=0, smem=4484, cmem=384
GPGPU-Sim PTX: Kernel '_Z14splitSort_nvm1iiPjS_S_' : regs=43, lmem=0, smem=4484, cmem=384
GPGPU-Sim PTX: Kernel '_Z14splitSort_nvmwiiPjS_S_' : regs=43, lmem=0, smem=4484, cmem=384
GPGPU-Sim PTX: Kernel '_Z14splitSort_nvmuiiPjS_S_' : regs=43, lmem=0, smem=4484, cmem=384
GPGPU-Sim PTX: Kernel '_Z14splitSort_nvmqiiPjS_S_' : regs=43, lmem=0, smem=4484, cmem=384
GPGPU-Sim PTX: Kernel '_Z14splitSort_nvmoiiPjS_S_' : regs=43, lmem=0, smem=4484, cmem=384
GPGPU-Sim PTX: Kernel '_Z9splitSortiiPjS_S_' : regs=43, lmem=0, smem=4484, cmem=384
GPGPU-Sim PTX: __cudaRegisterFunction _Z17gridding_GPU_nvmaP20ReconstructionSamplePjP6float2Pff : hostFun 0x0x404aee, fat_cubin_handle = 2
GPGPU-Sim PTX: __cudaRegisterFunction _Z12gridding_GPUP20ReconstructionSamplePjP6float2Pff : hostFun 0x0x404948, fat_cubin_handle = 2
GPGPU-Sim PTX: __cudaRegisterFunction _Z19reorder_kernel_nvmiiPjP20ReconstructionSampleS1_ : hostFun 0x0x4047b2, fat_cubin_handle = 2
GPGPU-Sim PTX: __cudaRegisterFunction _Z19reorder_kernel_nvmgiPjP20ReconstructionSampleS1_ : hostFun 0x0x40463d, fat_cubin_handle = 2
GPGPU-Sim PTX: __cudaRegisterFunction _Z19reorder_kernel_nvmdiPjP20ReconstructionSampleS1_ : hostFun 0x0x4044c8, fat_cubin_handle = 2
GPGPU-Sim PTX: __cudaRegisterFunction _Z19reorder_kernel_nvmbiPjP20ReconstructionSampleS1_ : hostFun 0x0x404353, fat_cubin_handle = 2
GPGPU-Sim PTX: __cudaRegisterFunction _Z19reorder_kernel_nvmaiPjP20ReconstructionSampleS1_ : hostFun 0x0x4041de, fat_cubin_handle = 2
GPGPU-Sim PTX: __cudaRegisterFunction _Z14reorder_kerneliPjP20ReconstructionSampleS1_ : hostFun 0x0x404069, fat_cubin_handle = 2
GPGPU-Sim PTX: __cudaRegisterFunction _Z19binning_kernel_nvmdjP20ReconstructionSamplePjS1_S1_jj : hostFun 0x0x403ede, fat_cubin_handle = 2
GPGPU-Sim PTX: __cudaRegisterFunction _Z19binning_kernel_nvmbjP20ReconstructionSamplePjS1_S1_jj : hostFun 0x0x403ce5, fat_cubin_handle = 2
GPGPU-Sim PTX: __cudaRegisterFunction _Z14binning_kerneljP20ReconstructionSamplePjS1_S1_jj : hostFun 0x0x403aec, fat_cubin_handle = 2
GPGPU-Sim PTX: __cudaRegisterVar: hostVar = 0x61c470; deviceAddress = cutoff2_c; deviceName = cutoff2_c
GPGPU-Sim PTX: __cudaRegisterVar: Registering const memory space of 4 bytes
GPGPU-Sim PTX registering constant cutoff2_c (4 bytes) to name mapping
GPGPU-Sim PTX: __cudaRegisterVar: hostVar = 0x61c474; deviceAddress = cutoff_c; deviceName = cutoff_c
GPGPU-Sim PTX: __cudaRegisterVar: Registering const memory space of 4 bytes
GPGPU-Sim PTX registering constant cutoff_c (4 bytes) to name mapping
GPGPU-Sim PTX: __cudaRegisterVar: hostVar = 0x61c478; deviceAddress = gridSize_c; deviceName = gridSize_c
GPGPU-Sim PTX: __cudaRegisterVar: Registering const memory space of 12 bytes
GPGPU-Sim PTX registering constant gridSize_c (12 bytes) to name mapping
GPGPU-Sim PTX: __cudaRegisterVar: hostVar = 0x61c484; deviceAddress = size_xy_c; deviceName = size_xy_c
GPGPU-Sim PTX: __cudaRegisterVar: Registering const memory space of 4 bytes
GPGPU-Sim PTX registering constant size_xy_c (4 bytes) to name mapping
GPGPU-Sim PTX: __cudaRegisterVar: hostVar = 0x61c488; deviceAddress = _1overCutoff2_c; deviceName = _1overCutoff2_c
GPGPU-Sim PTX: __cudaRegisterVar: Registering const memory space of 4 bytes
GPGPU-Sim PTX registering constant _1overCutoff2_c (4 bytes) to name mapping
GPGPU-Sim PTX: __cudaRegisterVar: hostVar = 0x61c4a0; deviceAddress = NVM_log; deviceName = NVM_log
GPGPU-Sim PTX: __cudaRegisterVar: Registering const memory space of 67108864 bytes
GPGPU-Sim PTX registering global NVM_log hostVar to name mapping
GPGPU-Sim PTX: __cudaRegisterVar: hostVar = 0x461c4a0; deviceAddress = NVM_flag; deviceName = NVM_flag
GPGPU-Sim PTX: __cudaRegisterVar: Registering const memory space of 4194304 bytes
GPGPU-Sim PTX registering global NVM_flag hostVar to name mapping
self exe links to: /home/pli11/Videos/parboil_benchmark/parboil/benchmarks/mri-gridding/build/nvm_ssort_default/mri-gridding
self exe links to: /home/pli11/Videos/parboil_benchmark/parboil/benchmarks/mri-gridding/build/nvm_ssort_default/mri-gridding
10.1
GPGPU-Sim PTX: __cudaRegisterFatBinary, fat_cubin_handle = 3, filename=default
GPGPU-Sim PTX: __cudaRegisterFunction _Z10uniformAddjPjS_ : hostFun 0x0x405ec1, fat_cubin_handle = 3
GPGPU-Sim PTX: __cudaRegisterFunction _Z18scan_inter2_kernelPjj : hostFun 0x0x405d6f, fat_cubin_handle = 3
GPGPU-Sim PTX: __cudaRegisterFunction _Z18scan_inter1_kernelPjj : hostFun 0x0x405c33, fat_cubin_handle = 3
GPGPU-Sim PTX: __cudaRegisterFunction _Z14scan_L1_kerneljPjS_ : hostFun 0x0x405aef, fat_cubin_handle = 3
self exe links to: /home/pli11/Videos/parboil_benchmark/parboil/benchmarks/mri-gridding/build/nvm_ssort_default/mri-gridding
self exe links to: /home/pli11/Videos/parboil_benchmark/parboil/benchmarks/mri-gridding/build/nvm_ssort_default/mri-gridding
10.1
GPGPU-Sim PTX: __cudaRegisterFatBinary, fat_cubin_handle = 4, filename=default
GPGPU-Sim PTX: __cudaRegisterFunction _Z14splitRearrangeiiPjS_S_S_S_ : hostFun 0x0x40a3f5, fat_cubin_handle = 4
GPGPU-Sim PTX: __cudaRegisterFunction _Z19splitRearrange_nvm5iiPjS_S_S_S_ : hostFun 0x0x40a1fd, fat_cubin_handle = 4
GPGPU-Sim PTX: __cudaRegisterFunction _Z19splitRearrange_nvm6iiPjS_S_S_S_ : hostFun 0x0x40a005, fat_cubin_handle = 4
GPGPU-Sim PTX: __cudaRegisterFunction _Z19splitRearrange_nvmiiiPjS_S_S_S_ : hostFun 0x0x409e0d, fat_cubin_handle = 4
GPGPU-Sim PTX: __cudaRegisterFunction _Z19splitRearrange_nvm4iiPjS_S_S_S_ : hostFun 0x0x409c15, fat_cubin_handle = 4
GPGPU-Sim PTX: __cudaRegisterFunction _Z19splitRearrange_nvm3iiPjS_S_S_S_ : hostFun 0x0x409a1d, fat_cubin_handle = 4
GPGPU-Sim PTX: __cudaRegisterFunction _Z19splitRearrange_nvmgiiPjS_S_S_S_ : hostFun 0x0x409825, fat_cubin_handle = 4
GPGPU-Sim PTX: __cudaRegisterFunction _Z14splitSort_nvm6iiPjS_S_ : hostFun 0x0x40963a, fat_cubin_handle = 4
GPGPU-Sim PTX: __cudaRegisterFunction _Z14splitSort_nvm5iiPjS_S_ : hostFun 0x0x4094a4, fat_cubin_handle = 4
GPGPU-Sim PTX: __cudaRegisterFunction _Z14splitSort_nvmiiiPjS_S_ : hostFun 0x0x40930e, fat_cubin_handle = 4
GPGPU-Sim PTX: __cudaRegisterFunction _Z14splitSort_nvm4iiPjS_S_ : hostFun 0x0x409178, fat_cubin_handle = 4
GPGPU-Sim PTX: __cudaRegisterFunction _Z14splitSort_nvm3iiPjS_S_ : hostFun 0x0x408fe2, fat_cubin_handle = 4
GPGPU-Sim PTX: __cudaRegisterFunction _Z14splitSort_nvmgiiPjS_S_ : hostFun 0x0x408e4c, fat_cubin_handle = 4
GPGPU-Sim PTX: __cudaRegisterFunction _Z19splitRearrange_nvm2iiPjS_S_S_S_ : hostFun 0x0x408ca9, fat_cubin_handle = 4
GPGPU-Sim PTX: __cudaRegisterFunction _Z19splitRearrange_nvm1iiPjS_S_S_S_ : hostFun 0x0x408ab1, fat_cubin_handle = 4
GPGPU-Sim PTX: __cudaRegisterFunction _Z19splitRearrange_nvmwiiPjS_S_S_S_ : hostFun 0x0x4088b9, fat_cubin_handle = 4
GPGPU-Sim PTX: __cudaRegisterFunction _Z19splitRearrange_nvmuiiPjS_S_S_S_ : hostFun 0x0x4086c1, fat_cubin_handle = 4
GPGPU-Sim PTX: __cudaRegisterFunction _Z19splitRearrange_nvmqiiPjS_S_S_S_ : hostFun 0x0x4084c9, fat_cubin_handle = 4
GPGPU-Sim PTX: __cudaRegisterFunction _Z19splitRearrange_nvmoiiPjS_S_S_S_ : hostFun 0x0x4082d1, fat_cubin_handle = 4
GPGPU-Sim PTX: __cudaRegisterFunction _Z19splitRearrange_nvmdiiPjS_S_S_S_ : hostFun 0x0x4080d9, fat_cubin_handle = 4
GPGPU-Sim PTX: __cudaRegisterFunction _Z19splitRearrange_nvmbiiPjS_S_S_S_ : hostFun 0x0x407ee1, fat_cubin_handle = 4
GPGPU-Sim PTX: __cudaRegisterFunction _Z14splitSort_nvmdiiPjS_S_ : hostFun 0x0x407cf6, fat_cubin_handle = 4
GPGPU-Sim PTX: __cudaRegisterFunction _Z14splitSort_nvmbiiPjS_S_ : hostFun 0x0x407b60, fat_cubin_handle = 4
GPGPU-Sim PTX: __cudaRegisterFunction _Z14splitSort_nvm2iiPjS_S_ : hostFun 0x0x4079ca, fat_cubin_handle = 4
GPGPU-Sim PTX: __cudaRegisterFunction _Z14splitSort_nvm1iiPjS_S_ : hostFun 0x0x407834, fat_cubin_handle = 4
GPGPU-Sim PTX: __cudaRegisterFunction _Z14splitSort_nvmwiiPjS_S_ : hostFun 0x0x40769e, fat_cubin_handle = 4
GPGPU-Sim PTX: __cudaRegisterFunction _Z14splitSort_nvmuiiPjS_S_ : hostFun 0x0x407508, fat_cubin_handle = 4
GPGPU-Sim PTX: __cudaRegisterFunction _Z14splitSort_nvmqiiPjS_S_ : hostFun 0x0x407372, fat_cubin_handle = 4
GPGPU-Sim PTX: __cudaRegisterFunction _Z14splitSort_nvmoiiPjS_S_ : hostFun 0x0x4071dc, fat_cubin_handle = 4
GPGPU-Sim PTX: __cudaRegisterFunction _Z9splitSortiiPjS_S_ : hostFun 0x0x407046, fat_cubin_handle = 4
GPGPU-Sim PTX: __cudaRegisterVar: hostVar = 0x4a1c580; deviceAddress = NVM_log1; deviceName = NVM_log1
GPGPU-Sim PTX: __cudaRegisterVar: Registering const memory space of 67108864 bytes
GPGPU-Sim PTX registering global NVM_log1 hostVar to name mapping
GPGPU-Sim PTX: __cudaRegisterVar: hostVar = 0x8a1c580; deviceAddress = NVM_log2; deviceName = NVM_log2
GPGPU-Sim PTX: __cudaRegisterVar: Registering const memory space of 67108864 bytes
GPGPU-Sim PTX registering global NVM_log2 hostVar to name mapping
GPGPU-Sim PTX: __cudaRegisterVar: hostVar = 0xca1c580; deviceAddress = NVM_log3; deviceName = NVM_log3
GPGPU-Sim PTX: __cudaRegisterVar: Registering const memory space of 67108864 bytes
GPGPU-Sim PTX registering global NVM_log3 hostVar to name mapping
GPGPU-Sim PTX: __cudaRegisterVar: hostVar = 0x10a1c580; deviceAddress = NVM_flag; deviceName = NVM_flag
GPGPU-Sim PTX: __cudaRegisterVar: Registering const memory space of 4194304 bytes
GPGPU-Sim PTX registering global NVM_flag hostVar to name mapping

Reading parameters
  Total amount of GPU memory: 2147483648 bytes
  Number of samples = 2655910
  Grid Size = 256x256x256
  Input Matrix Size = 60x60x60
  Recon Matrix Size = 60x60x60
  Kernel Width = 5.000000
  KMax = 150.00 150.00 150.00
  Oversampling = 5.000000
  GPU Binsize = 32
  Use LUT = Yes
Reading input data from files
Generating Look-Up Table
Running gold version
Running CUDA version
GPGPU-Sim PTX: cudaMemcpyToSymbol: symbol = 0x61c470
GPGPU-Sim PTX: starting gpgpu_ptx_sim_memcpy_symbol with hostVar 0x0x61c470
GPGPU-Sim PTX: gpgpu_ptx_sim_memcpy_symbol: Found PTX symbol w/ hostVar=0x61c470
GPGPU-Sim PTX: gpgpu_ptx_sim_memcpy_symbol: copying const memory 4 bytes  to  symbol cutoff2_c+0 @0x100 ...
GPGPU-Sim PTX: cudaMemcpyToSymbol: symbol = 0x61c474
GPGPU-Sim PTX: starting gpgpu_ptx_sim_memcpy_symbol with hostVar 0x0x61c474
GPGPU-Sim PTX: gpgpu_ptx_sim_memcpy_symbol: Found PTX symbol w/ hostVar=0x61c474
GPGPU-Sim PTX: gpgpu_ptx_sim_memcpy_symbol: copying const memory 4 bytes  to  symbol cutoff_c+0 @0x104 ...
GPGPU-Sim PTX: cudaMemcpyToSymbol: symbol = 0x61c478
GPGPU-Sim PTX: starting gpgpu_ptx_sim_memcpy_symbol with hostVar 0x0x61c478
GPGPU-Sim PTX: gpgpu_ptx_sim_memcpy_symbol: Found PTX symbol w/ hostVar=0x61c478
GPGPU-Sim PTX: gpgpu_ptx_sim_memcpy_symbol: copying const memory 12 bytes  to  symbol gridSize_c+0 @0x180 ...
GPGPU-Sim PTX: cudaMemcpyToSymbol: symbol = 0x61c484
GPGPU-Sim PTX: starting gpgpu_ptx_sim_memcpy_symbol with hostVar 0x0x61c484
GPGPU-Sim PTX: gpgpu_ptx_sim_memcpy_symbol: Found PTX symbol w/ hostVar=0x61c484
GPGPU-Sim PTX: gpgpu_ptx_sim_memcpy_symbol: copying const memory 4 bytes  to  symbol size_xy_c+0 @0x18c ...
GPGPU-Sim PTX: cudaMemcpyToSymbol: symbol = 0x61c488
GPGPU-Sim PTX: starting gpgpu_ptx_sim_memcpy_symbol with hostVar 0x0x61c488
GPGPU-Sim PTX: gpgpu_ptx_sim_memcpy_symbol: Found PTX symbol w/ hostVar=0x61c488
GPGPU-Sim PTX: gpgpu_ptx_sim_memcpy_symbol: copying const memory 4 bytes  to  symbol _1overCutoff2_c+0 @0x190 ...
event update
GPGPU-Sim: synchronize waiting for inactive GPU simulation
GPGPU-Sim API: Stream Manager State
GPGPU-Sim: detected inactive GPU simulation thread
GPGPU-Sim: synchronize waiting for inactive GPU simulation
GPGPU-Sim API: Stream Manager State
GPGPU-Sim: detected inactive GPU simulation thread
GPGPU-Sim: synchronize waiting for inactive GPU simulation
GPGPU-Sim API: Stream Manager State
GPGPU-Sim: detected inactive GPU simulation thread
GPGPU-Sim PTX: Setting up arguments for 4 bytes starting at 0x7ffe1fd24a6c..
GPGPU-Sim PTX: Setting up arguments for 4 bytes starting at 0x7ffe1fd24a68..
GPGPU-Sim PTX: Setting up arguments for 8 bytes starting at 0x7ffe1fd24a60..
GPGPU-Sim PTX: Setting up arguments for 8 bytes starting at 0x7ffe1fd24a58..
GPGPU-Sim PTX: Setting up arguments for 8 bytes starting at 0x7ffe1fd24a50..

GPGPU-Sim PTX: cudaLaunch for 0x0x40963a (mode=performance simulation) on stream 0
GPGPU-Sim PTX: finding reconvergence points for '_Z14splitSort_nvm6iiPjS_S_'...
GPGPU-Sim PTX: Finding dominators for '_Z14splitSort_nvm6iiPjS_S_'...
GPGPU-Sim PTX: Finding immediate dominators for '_Z14splitSort_nvm6iiPjS_S_'...
GPGPU-Sim PTX: Finding postdominators for '_Z14splitSort_nvm6iiPjS_S_'...
GPGPU-Sim PTX: Finding immediate postdominators for '_Z14splitSort_nvm6iiPjS_S_'...
GPGPU-Sim PTX: pre-decoding instructions for '_Z14splitSort_nvm6iiPjS_S_'...
GPGPU-Sim PTX: reconvergence points for _Z14splitSort_nvm6iiPjS_S_...
GPGPU-Sim PTX:  1 (potential) branch divergence @  PC=0x11938 (mri-gridding.4.sm_70.ptx:8340) @%p2 bra BB22_2;
GPGPU-Sim PTX:    immediate post dominator      @  PC=0x11968 (mri-gridding.4.sm_70.ptx:8349) shl.b32 %r86, %r3, 2;
GPGPU-Sim PTX:  2 (potential) branch divergence @  PC=0x11988 (mri-gridding.4.sm_70.ptx:8353) @%p3 bra BB22_4;
GPGPU-Sim PTX:    immediate post dominator      @  PC=0x119a0 (mri-gridding.4.sm_70.ptx:8359) bar.sync 0;
GPGPU-Sim PTX:  3 (potential) branch divergence @  PC=0x11e40 (mri-gridding.4.sm_70.ptx:8509) @%p4 bra BB22_9;
GPGPU-Sim PTX:    immediate post dominator      @  PC=0x11f30 (mri-gridding.4.sm_70.ptx:8546) setp.ne.s32%p7, %r3, 0;
GPGPU-Sim PTX:  4 (potential) branch divergence @  PC=0x11e58 (mri-gridding.4.sm_70.ptx:8514) @%p5 bra BB22_8;
GPGPU-Sim PTX:    immediate post dominator      @  PC=0x11f10 (mri-gridding.4.sm_70.ptx:8540) shl.b32 %r349, %r349, 1;
GPGPU-Sim PTX:  5 (potential) branch divergence @  PC=0x11f28 (mri-gridding.4.sm_70.ptx:8543) @%p6 bra BB22_6;
GPGPU-Sim PTX:    immediate post dominator      @  PC=0x11f30 (mri-gridding.4.sm_70.ptx:8546) setp.ne.s32%p7, %r3, 0;
GPGPU-Sim PTX:  6 (potential) branch divergence @  PC=0x11f38 (mri-gridding.4.sm_70.ptx:8547) @%p7 bra BB22_11;
GPGPU-Sim PTX:    immediate post dominator      @  PC=0x11f70 (mri-gridding.4.sm_70.ptx:8557) mov.u32 %r350, %r90;
GPGPU-Sim PTX:  7 (potential) branch divergence @  PC=0x11f78 (mri-gridding.4.sm_70.ptx:8558) @%p4 bra BB22_15;
GPGPU-Sim PTX:    immediate post dominator      @  PC=0x12078 (mri-gridding.4.sm_70.ptx:8597) bar.sync 0;
GPGPU-Sim PTX:  8 (potential) branch divergence @  PC=0x11f98 (mri-gridding.4.sm_70.ptx:8564) @%p9 bra BB22_14;
GPGPU-Sim PTX:    immediate post dominator      @  PC=0x12060 (mri-gridding.4.sm_70.ptx:8592) shl.b32 %r350, %r350, 1;
GPGPU-Sim PTX:  9 (potential) branch divergence @  PC=0x12070 (mri-gridding.4.sm_70.ptx:8594) @%p10 bra BB22_12;
GPGPU-Sim PTX:    immediate post dominator      @  PC=0x12078 (mri-gridding.4.sm_70.ptx:8597) bar.sync 0;
GPGPU-Sim PTX: 10 (potential) branch divergence @  PC=0x121f8 (mri-gridding.4.sm_70.ptx:8645) @%p15 bra BB22_5;
GPGPU-Sim PTX:    immediate post dominator      @  PC=0x12200 (mri-gridding.4.sm_70.ptx:8647) @%p2 bra BB22_18;
GPGPU-Sim PTX: 11 (potential) branch divergence @  PC=0x12200 (mri-gridding.4.sm_70.ptx:8647) @%p2 bra BB22_18;
GPGPU-Sim PTX:    immediate post dominator      @  PC=0x12360 (mri-gridding.4.sm_70.ptx:8711) membar.gl;
GPGPU-Sim PTX: 12 (potential) branch divergence @  PC=0x123d0 (mri-gridding.4.sm_70.ptx:8730) @%p17 bra BB22_20;
GPGPU-Sim PTX:    immediate post dominator      @  PC=0x12460 (mri-gridding.4.sm_70.ptx:8761) @%p2 bra BB22_22;
GPGPU-Sim PTX: 13 (potential) branch divergence @  PC=0x12460 (mri-gridding.4.sm_70.ptx:8761) @%p2 bra BB22_22;
GPGPU-Sim PTX:    immediate post dominator      @  PC=0x12528 (mri-gridding.4.sm_70.ptx:8789) mov.u32 %r69, %nctaid.x;
GPGPU-Sim PTX: 14 (potential) branch divergence @  PC=0x12538 (mri-gridding.4.sm_70.ptx:8791) @%p3 bra BB22_24;
GPGPU-Sim PTX:    immediate post dominator      @  PC=0x12560 (mri-gridding.4.sm_70.ptx:8799) setp.eq.s32%p1, %r67, %r68;
GPGPU-Sim PTX: 15 (potential) branch divergence @  PC=0x12668 (mri-gridding.4.sm_70.ptx:8856) @!%p1 bra BB22_26;
GPGPU-Sim PTX:    immediate post dominator      @  PC=0x126f0 (mri-gridding.4.sm_70.ptx:8887) ret;
GPGPU-Sim PTX: 16 (potential) branch divergence @  PC=0x12670 (mri-gridding.4.sm_70.ptx:8857) bra.uni BB22_25;
GPGPU-Sim PTX:    immediate post dominator      @  PC=0x12678 (mri-gridding.4.sm_70.ptx:8860) mov.u32 %r318, %ctaid.y;
GPGPU-Sim PTX: ... end of reconvergence points for _Z14splitSort_nvm6iiPjS_S_
GPGPU-Sim PTX: ... done pre-decoding instructions for '_Z14splitSort_nvm6iiPjS_S_'.
GPGPU-Sim PTX: pushing kernel '_Z14splitSort_nvm6iiPjS_S_' to stream 0, gridDim= (2594,1,1) blockDim = (256,1,1) 
GPGPU-Sim uArch: Shader 0 bind to kernel 1 '_Z14splitSort_nvm6iiPjS_S_'
GPGPU-Sim uArch: CTA/core = 5, limited by: regs
GPGPU-Sim: Reconfigure L1 cache to 96KB
GPGPU-Sim uArch: Shader 1 bind to kernel 1 '_Z14splitSort_nvm6iiPjS_S_'
GPGPU-Sim uArch: Shader 2 bind to kernel 1 '_Z14splitSort_nvm6iiPjS_S_'
GPGPU-Sim uArch: Shader 3 bind to kernel 1 '_Z14splitSort_nvm6iiPjS_S_'
GPGPU-Sim uArch: Shader 4 bind to kernel 1 '_Z14splitSort_nvm6iiPjS_S_'
GPGPU-Sim uArch: Shader 5 bind to kernel 1 '_Z14splitSort_nvm6iiPjS_S_'
GPGPU-Sim uArch: Shader 6 bind to kernel 1 '_Z14splitSort_nvm6iiPjS_S_'
GPGPU-Sim uArch: Shader 7 bind to kernel 1 '_Z14splitSort_nvm6iiPjS_S_'
GPGPU-Sim uArch: Shader 8 bind to kernel 1 '_Z14splitSort_nvm6iiPjS_S_'
GPGPU-Sim uArch: Shader 9 bind to kernel 1 '_Z14splitSort_nvm6iiPjS_S_'
GPGPU-Sim uArch: Shader 10 bind to kernel 1 '_Z14splitSort_nvm6iiPjS_S_'
GPGPU-Sim uArch: Shader 11 bind to kernel 1 '_Z14splitSort_nvm6iiPjS_S_'
GPGPU-Sim uArch: Shader 12 bind to kernel 1 '_Z14splitSort_nvm6iiPjS_S_'
GPGPU-Sim uArch: Shader 13 bind to kernel 1 '_Z14splitSort_nvm6iiPjS_S_'
GPGPU-Sim uArch: Shader 14 bind to kernel 1 '_Z14splitSort_nvm6iiPjS_S_'
GPGPU-Sim uArch: Shader 15 bind to kernel 1 '_Z14splitSort_nvm6iiPjS_S_'
GPGPU-Sim uArch: Shader 16 bind to kernel 1 '_Z14splitSort_nvm6iiPjS_S_'
GPGPU-Sim uArch: Shader 17 bind to kernel 1 '_Z14splitSort_nvm6iiPjS_S_'
GPGPU-Sim uArch: Shader 18 bind to kernel 1 '_Z14splitSort_nvm6iiPjS_S_'
GPGPU-Sim uArch: Shader 19 bind to kernel 1 '_Z14splitSort_nvm6iiPjS_S_'
GPGPU-Sim uArch: Shader 20 bind to kernel 1 '_Z14splitSort_nvm6iiPjS_S_'
GPGPU-Sim uArch: Shader 21 bind to kernel 1 '_Z14splitSort_nvm6iiPjS_S_'
GPGPU-Sim uArch: Shader 22 bind to kernel 1 '_Z14splitSort_nvm6iiPjS_S_'
GPGPU-Sim uArch: Shader 23 bind to kernel 1 '_Z14splitSort_nvm6iiPjS_S_'
GPGPU-Sim uArch: Shader 24 bind to kernel 1 '_Z14splitSort_nvm6iiPjS_S_'
GPGPU-Sim uArch: Shader 25 bind to kernel 1 '_Z14splitSort_nvm6iiPjS_S_'
GPGPU-Sim uArch: Shader 26 bind to kernel 1 '_Z14splitSort_nvm6iiPjS_S_'
GPGPU-Sim uArch: Shader 27 bind to kernel 1 '_Z14splitSort_nvm6iiPjS_S_'
GPGPU-Sim uArch: Shader 28 bind to kernel 1 '_Z14splitSort_nvm6iiPjS_S_'
GPGPU-Sim uArch: Shader 29 bind to kernel 1 '_Z14splitSort_nvm6iiPjS_S_'
GPGPU-Sim uArch: Shader 30 bind to kernel 1 '_Z14splitSort_nvm6iiPjS_S_'
GPGPU-Sim uArch: Shader 31 bind to kernel 1 '_Z14splitSort_nvm6iiPjS_S_'
GPGPU-Sim uArch: Shader 32 bind to kernel 1 '_Z14splitSort_nvm6iiPjS_S_'
GPGPU-Sim uArch: Shader 33 bind to kernel 1 '_Z14splitSort_nvm6iiPjS_S_'
GPGPU-Sim uArch: Shader 34 bind to kernel 1 '_Z14splitSort_nvm6iiPjS_S_'
GPGPU-Sim uArch: Shader 35 bind to kernel 1 '_Z14splitSort_nvm6iiPjS_S_'
GPGPU-Sim uArch: Shader 36 bind to kernel 1 '_Z14splitSort_nvm6iiPjS_S_'
GPGPU-Sim uArch: Shader 37 bind to kernel 1 '_Z14splitSort_nvm6iiPjS_S_'
GPGPU-Sim uArch: Shader 38 bind to kernel 1 '_Z14splitSort_nvm6iiPjS_S_'
GPGPU-Sim uArch: Shader 39 bind to kernel 1 '_Z14splitSort_nvm6iiPjS_S_'
GPGPU-Sim uArch: Shader 40 bind to kernel 1 '_Z14splitSort_nvm6iiPjS_S_'
GPGPU-Sim uArch: Shader 41 bind to kernel 1 '_Z14splitSort_nvm6iiPjS_S_'
GPGPU-Sim uArch: Shader 42 bind to kernel 1 '_Z14splitSort_nvm6iiPjS_S_'
GPGPU-Sim uArch: Shader 43 bind to kernel 1 '_Z14splitSort_nvm6iiPjS_S_'
GPGPU-Sim uArch: Shader 44 bind to kernel 1 '_Z14splitSort_nvm6iiPjS_S_'
GPGPU-Sim uArch: Shader 45 bind to kernel 1 '_Z14splitSort_nvm6iiPjS_S_'
GPGPU-Sim uArch: Shader 46 bind to kernel 1 '_Z14splitSort_nvm6iiPjS_S_'
GPGPU-Sim uArch: Shader 47 bind to kernel 1 '_Z14splitSort_nvm6iiPjS_S_'
GPGPU-Sim uArch: Shader 48 bind to kernel 1 '_Z14splitSort_nvm6iiPjS_S_'
GPGPU-Sim uArch: Shader 49 bind to kernel 1 '_Z14splitSort_nvm6iiPjS_S_'
GPGPU-Sim uArch: Shader 50 bind to kernel 1 '_Z14splitSort_nvm6iiPjS_S_'
GPGPU-Sim uArch: Shader 51 bind to kernel 1 '_Z14splitSort_nvm6iiPjS_S_'
GPGPU-Sim uArch: Shader 52 bind to kernel 1 '_Z14splitSort_nvm6iiPjS_S_'
GPGPU-Sim uArch: Shader 53 bind to kernel 1 '_Z14splitSort_nvm6iiPjS_S_'
GPGPU-Sim uArch: Shader 54 bind to kernel 1 '_Z14splitSort_nvm6iiPjS_S_'
GPGPU-Sim uArch: Shader 55 bind to kernel 1 '_Z14splitSort_nvm6iiPjS_S_'
GPGPU-Sim uArch: Shader 56 bind to kernel 1 '_Z14splitSort_nvm6iiPjS_S_'
GPGPU-Sim uArch: Shader 57 bind to kernel 1 '_Z14splitSort_nvm6iiPjS_S_'
GPGPU-Sim uArch: Shader 58 bind to kernel 1 '_Z14splitSort_nvm6iiPjS_S_'
GPGPU-Sim uArch: Shader 59 bind to kernel 1 '_Z14splitSort_nvm6iiPjS_S_'
GPGPU-Sim uArch: Shader 60 bind to kernel 1 '_Z14splitSort_nvm6iiPjS_S_'
GPGPU-Sim uArch: Shader 61 bind to kernel 1 '_Z14splitSort_nvm6iiPjS_S_'
GPGPU-Sim uArch: Shader 62 bind to kernel 1 '_Z14splitSort_nvm6iiPjS_S_'
GPGPU-Sim uArch: Shader 63 bind to kernel 1 '_Z14splitSort_nvm6iiPjS_S_'
GPGPU-Sim uArch: Shader 64 bind to kernel 1 '_Z14splitSort_nvm6iiPjS_S_'
GPGPU-Sim uArch: Shader 65 bind to kernel 1 '_Z14splitSort_nvm6iiPjS_S_'
GPGPU-Sim uArch: Shader 66 bind to kernel 1 '_Z14splitSort_nvm6iiPjS_S_'
GPGPU-Sim uArch: Shader 67 bind to kernel 1 '_Z14splitSort_nvm6iiPjS_S_'
GPGPU-Sim uArch: Shader 68 bind to kernel 1 '_Z14splitSort_nvm6iiPjS_S_'
GPGPU-Sim uArch: Shader 69 bind to kernel 1 '_Z14splitSort_nvm6iiPjS_S_'
GPGPU-Sim uArch: Shader 70 bind to kernel 1 '_Z14splitSort_nvm6iiPjS_S_'
GPGPU-Sim uArch: Shader 71 bind to kernel 1 '_Z14splitSort_nvm6iiPjS_S_'
GPGPU-Sim uArch: Shader 72 bind to kernel 1 '_Z14splitSort_nvm6iiPjS_S_'
GPGPU-Sim uArch: Shader 73 bind to kernel 1 '_Z14splitSort_nvm6iiPjS_S_'
GPGPU-Sim uArch: Shader 74 bind to kernel 1 '_Z14splitSort_nvm6iiPjS_S_'
GPGPU-Sim uArch: Shader 75 bind to kernel 1 '_Z14splitSort_nvm6iiPjS_S_'
GPGPU-Sim uArch: Shader 76 bind to kernel 1 '_Z14splitSort_nvm6iiPjS_S_'
GPGPU-Sim uArch: Shader 77 bind to kernel 1 '_Z14splitSort_nvm6iiPjS_S_'
GPGPU-Sim uArch: Shader 78 bind to kernel 1 '_Z14splitSort_nvm6iiPjS_S_'
GPGPU-Sim uArch: Shader 79 bind to kernel 1 '_Z14splitSort_nvm6iiPjS_S_'
Destroy streams for kernel 1: size 0
kernel_name = _Z14splitSort_nvm6iiPjS_S_ 
kernel_launch_uid = 1 
gpu_sim_cycle = 509773
gpu_sim_insn = 1023822520
gpu_ipc =    2008.3890
gpu_tot_sim_cycle = 509773
gpu_tot_sim_insn = 1023822520
gpu_tot_ipc =    2008.3890
gpu_tot_issued_cta = 2594
gpu_occupancy = 58.0653% 
gpu_tot_occupancy = 58.0653% 
max_total_param_size = 0
gpu_stall_dramfull = 290138
gpu_stall_icnt2sh    = 3016
partiton_level_parallism =      26.0873
partiton_level_parallism_total  =      26.0873
partiton_level_parallism_util =      28.5127
partiton_level_parallism_util_total  =      28.5127
L2_BW  =     944.9858 GB/Sec
L2_BW_total  =     944.9858 GB/Sec
gpu_total_sim_rate=198800
############## bottleneck_stats #############
cycles: core 509773, icnt 509773, l2 509773, dram 382780
gpu_ipc	2008.389
gpu_tot_issued_cta = 2594, average cycles = 197
n_dram_writes	 0, n_dram_reads	 0
n_GLOBAL_ACC_R	 1182782 
n_LOCAL_ACC_R	 0 
n_CONST_ACC_R	 0 
n_TEXTURE_ACC_R	 0 
n_GLOBAL_ACC_W	 0 
n_LOCAL_ACC_W	 0 
n_L1_WRBK_ACC	 0 
n_L2_WRBK_ACC	 573216 
n_L1_WR_ALLOC_R	 0 
n_L2_WR_ALLOC_R	 0 

n_sm	 80, n_schedulers	 4
scheduler util	0.213	80
L1D data util	0.735	80	0.755	27
L1D tag util	0.241	80	0.249	65
L2 data util	0.357	64	0.364	17
L2 tag util	0.316	64	0.323	53
n_l2_access	 10311319
icnt s2m util	0.000	0	0.000	53	flits per packet: -nan
icnt m2s util	0.000	0	0.000	53	flits per packet: -nan
sum=0
n_mem	 32
dram util	0.236	32	0.240	2

latency_l1_hit:	46968280, num_l1_reqs:	1573522
L1 hit latency:	29
latency_l2_hit:	1546249001, num_l2_reqs:	6392900
L2 hit latency:	913
latency_dram:	-1311192998, num_dram_reqs:	3891796
DRAM latency:	766

n_reg	65536, n_smem	98304, n_thread	2048, n_tb	32
reg file	0.938
smem size	0.228
thread slot	0.625
TB slot    	0.156
L1I tag util	0.475	80	0.483	0

n_mem_pipe	1, n_sp_pipe	4, n_sfu_pipe	4
mem pipe util	0.121	80	0.123	0
sp pipe util	0.000	0	0.000	0
sfu pipe util	0.000	0	0.000	0
ldst mem cycle	0.151	80	0.154	0

smem port	0.461	80

n_reg_bank	16
reg port	0.114	16	0.177	1
L1D tag util	0.241	80	0.249	65
L1D fill util	0.043	80	0.046	27
n_l1d_mshr	4096
L1D mshr util	0.013	80
n_l1d_missq	16
L1D missq util	0.050	80
L1D hit rate	0.160
L1D miss rate	0.722
L1D rsfail rate	0.118
L2 tag util	0.316	64	0.323	53
L2 fill util	0.036	64	0.037	3
n_l2_mshr	192
n_l2_missq	32
L2 mshr util	0.123	64	0.126	26
L2 missq util	0.002	64	0.002	3
L2 hit rate	0.623
L2 miss rate	0.377
L2 rsfail rate	0.000

dram activity	0.552	32	0.562	8

load trans eff	0.250
load trans sz	32.000
load_useful_bytes 26559120, load_transaction_bytes 106236480, icnt_m2s_bytes 0
n_gmem_load_insns 207500, n_gmem_load_accesses 3319890
n_smem_access_insn 3937719, n_smem_accesses 18796160

tmp_counter/12	0.415

run 0.036, fetch 0.001, sync 0.553, control 0.003, data 0.390, struct 0.017
############ end_bottleneck_stats #############

========= Core cache stats =========
L1I_cache:
	L1I_total_cache_accesses = 0
	L1I_total_cache_misses = 0
	L1I_total_cache_pending_hits = 0
	L1I_total_cache_reservation_fails = 0
L1D_cache:
	L1D_cache_core[0]: Access = 110418, Miss = 89985, Miss_rate = 0.815, Pending_hits = 0, Reservation_fails = 13329
	L1D_cache_core[1]: Access = 110418, Miss = 90924, Miss_rate = 0.823, Pending_hits = 0, Reservation_fails = 12154
	L1D_cache_core[2]: Access = 110418, Miss = 90155, Miss_rate = 0.816, Pending_hits = 0, Reservation_fails = 13292
	L1D_cache_core[3]: Access = 110418, Miss = 90386, Miss_rate = 0.819, Pending_hits = 0, Reservation_fails = 12600
	L1D_cache_core[4]: Access = 107072, Miss = 89126, Miss_rate = 0.832, Pending_hits = 0, Reservation_fails = 15965
	L1D_cache_core[5]: Access = 110418, Miss = 90062, Miss_rate = 0.816, Pending_hits = 0, Reservation_fails = 12991
	L1D_cache_core[6]: Access = 107072, Miss = 88117, Miss_rate = 0.823, Pending_hits = 0, Reservation_fails = 13859
	L1D_cache_core[7]: Access = 110418, Miss = 89471, Miss_rate = 0.810, Pending_hits = 0, Reservation_fails = 11221
	L1D_cache_core[8]: Access = 110418, Miss = 89765, Miss_rate = 0.813, Pending_hits = 0, Reservation_fails = 13448
	L1D_cache_core[9]: Access = 110418, Miss = 90016, Miss_rate = 0.815, Pending_hits = 0, Reservation_fails = 12315
	L1D_cache_core[10]: Access = 110418, Miss = 90873, Miss_rate = 0.823, Pending_hits = 0, Reservation_fails = 14504
	L1D_cache_core[11]: Access = 110418, Miss = 90091, Miss_rate = 0.816, Pending_hits = 0, Reservation_fails = 13181
	L1D_cache_core[12]: Access = 110418, Miss = 90146, Miss_rate = 0.816, Pending_hits = 0, Reservation_fails = 13465
	L1D_cache_core[13]: Access = 110418, Miss = 90446, Miss_rate = 0.819, Pending_hits = 0, Reservation_fails = 12467
	L1D_cache_core[14]: Access = 110418, Miss = 89683, Miss_rate = 0.812, Pending_hits = 0, Reservation_fails = 13154
	L1D_cache_core[15]: Access = 107072, Miss = 88305, Miss_rate = 0.825, Pending_hits = 0, Reservation_fails = 14423
	L1D_cache_core[16]: Access = 107072, Miss = 88205, Miss_rate = 0.824, Pending_hits = 0, Reservation_fails = 16094
	L1D_cache_core[17]: Access = 110418, Miss = 90297, Miss_rate = 0.818, Pending_hits = 0, Reservation_fails = 14798
	L1D_cache_core[18]: Access = 110418, Miss = 90493, Miss_rate = 0.820, Pending_hits = 0, Reservation_fails = 13587
	L1D_cache_core[19]: Access = 107072, Miss = 87429, Miss_rate = 0.817, Pending_hits = 0, Reservation_fails = 14010
	L1D_cache_core[20]: Access = 107072, Miss = 87603, Miss_rate = 0.818, Pending_hits = 0, Reservation_fails = 14022
	L1D_cache_core[21]: Access = 107072, Miss = 87485, Miss_rate = 0.817, Pending_hits = 0, Reservation_fails = 14739
	L1D_cache_core[22]: Access = 107072, Miss = 88269, Miss_rate = 0.824, Pending_hits = 0, Reservation_fails = 14579
	L1D_cache_core[23]: Access = 109300, Miss = 89345, Miss_rate = 0.817, Pending_hits = 0, Reservation_fails = 14078
	L1D_cache_core[24]: Access = 107072, Miss = 86908, Miss_rate = 0.812, Pending_hits = 0, Reservation_fails = 13537
	L1D_cache_core[25]: Access = 107072, Miss = 87437, Miss_rate = 0.817, Pending_hits = 0, Reservation_fails = 14211
	L1D_cache_core[26]: Access = 107072, Miss = 87982, Miss_rate = 0.822, Pending_hits = 0, Reservation_fails = 15179
	L1D_cache_core[27]: Access = 110418, Miss = 91484, Miss_rate = 0.829, Pending_hits = 0, Reservation_fails = 14667
	L1D_cache_core[28]: Access = 107072, Miss = 89061, Miss_rate = 0.832, Pending_hits = 0, Reservation_fails = 16566
	L1D_cache_core[29]: Access = 110418, Miss = 90585, Miss_rate = 0.820, Pending_hits = 0, Reservation_fails = 15527
	L1D_cache_core[30]: Access = 107072, Miss = 87550, Miss_rate = 0.818, Pending_hits = 0, Reservation_fails = 13656
	L1D_cache_core[31]: Access = 107072, Miss = 86618, Miss_rate = 0.809, Pending_hits = 0, Reservation_fails = 14117
	L1D_cache_core[32]: Access = 110418, Miss = 89809, Miss_rate = 0.813, Pending_hits = 0, Reservation_fails = 14064
	L1D_cache_core[33]: Access = 107072, Miss = 87447, Miss_rate = 0.817, Pending_hits = 0, Reservation_fails = 14953
	L1D_cache_core[34]: Access = 107072, Miss = 87143, Miss_rate = 0.814, Pending_hits = 0, Reservation_fails = 13993
	L1D_cache_core[35]: Access = 107072, Miss = 87766, Miss_rate = 0.820, Pending_hits = 0, Reservation_fails = 14582
	L1D_cache_core[36]: Access = 110418, Miss = 90228, Miss_rate = 0.817, Pending_hits = 0, Reservation_fails = 15896
	L1D_cache_core[37]: Access = 110418, Miss = 89279, Miss_rate = 0.809, Pending_hits = 0, Reservation_fails = 13377
	L1D_cache_core[38]: Access = 107072, Miss = 88036, Miss_rate = 0.822, Pending_hits = 0, Reservation_fails = 14242
	L1D_cache_core[39]: Access = 107072, Miss = 87321, Miss_rate = 0.816, Pending_hits = 0, Reservation_fails = 13882
	L1D_cache_core[40]: Access = 107072, Miss = 88141, Miss_rate = 0.823, Pending_hits = 0, Reservation_fails = 15714
	L1D_cache_core[41]: Access = 107072, Miss = 86496, Miss_rate = 0.808, Pending_hits = 0, Reservation_fails = 15747
	L1D_cache_core[42]: Access = 107072, Miss = 87453, Miss_rate = 0.817, Pending_hits = 0, Reservation_fails = 14154
	L1D_cache_core[43]: Access = 107072, Miss = 87891, Miss_rate = 0.821, Pending_hits = 0, Reservation_fails = 14733
	L1D_cache_core[44]: Access = 107072, Miss = 86742, Miss_rate = 0.810, Pending_hits = 0, Reservation_fails = 14675
	L1D_cache_core[45]: Access = 110418, Miss = 90454, Miss_rate = 0.819, Pending_hits = 0, Reservation_fails = 14929
	L1D_cache_core[46]: Access = 110418, Miss = 89548, Miss_rate = 0.811, Pending_hits = 0, Reservation_fails = 12747
	L1D_cache_core[47]: Access = 110418, Miss = 89351, Miss_rate = 0.809, Pending_hits = 0, Reservation_fails = 13520
	L1D_cache_core[48]: Access = 107072, Miss = 87647, Miss_rate = 0.819, Pending_hits = 0, Reservation_fails = 14943
	L1D_cache_core[49]: Access = 107072, Miss = 87751, Miss_rate = 0.820, Pending_hits = 0, Reservation_fails = 15596
	L1D_cache_core[50]: Access = 110418, Miss = 90057, Miss_rate = 0.816, Pending_hits = 0, Reservation_fails = 13390
	L1D_cache_core[51]: Access = 107072, Miss = 87956, Miss_rate = 0.821, Pending_hits = 0, Reservation_fails = 15790
	L1D_cache_core[52]: Access = 107072, Miss = 87617, Miss_rate = 0.818, Pending_hits = 0, Reservation_fails = 15503
	L1D_cache_core[53]: Access = 110418, Miss = 89219, Miss_rate = 0.808, Pending_hits = 0, Reservation_fails = 14776
	L1D_cache_core[54]: Access = 107072, Miss = 86819, Miss_rate = 0.811, Pending_hits = 0, Reservation_fails = 14330
	L1D_cache_core[55]: Access = 110418, Miss = 89921, Miss_rate = 0.814, Pending_hits = 0, Reservation_fails = 13863
	L1D_cache_core[56]: Access = 107072, Miss = 88021, Miss_rate = 0.822, Pending_hits = 0, Reservation_fails = 14597
	L1D_cache_core[57]: Access = 107072, Miss = 89431, Miss_rate = 0.835, Pending_hits = 0, Reservation_fails = 17422
	L1D_cache_core[58]: Access = 107072, Miss = 88360, Miss_rate = 0.825, Pending_hits = 0, Reservation_fails = 14329
	L1D_cache_core[59]: Access = 107072, Miss = 88518, Miss_rate = 0.827, Pending_hits = 0, Reservation_fails = 16093
	L1D_cache_core[60]: Access = 107072, Miss = 87588, Miss_rate = 0.818, Pending_hits = 0, Reservation_fails = 14532
	L1D_cache_core[61]: Access = 107072, Miss = 86798, Miss_rate = 0.811, Pending_hits = 0, Reservation_fails = 15397
	L1D_cache_core[62]: Access = 110418, Miss = 90976, Miss_rate = 0.824, Pending_hits = 0, Reservation_fails = 14579
	L1D_cache_core[63]: Access = 110418, Miss = 90094, Miss_rate = 0.816, Pending_hits = 0, Reservation_fails = 14510
	L1D_cache_core[64]: Access = 107072, Miss = 87433, Miss_rate = 0.817, Pending_hits = 0, Reservation_fails = 13912
	L1D_cache_core[65]: Access = 110418, Miss = 90910, Miss_rate = 0.823, Pending_hits = 0, Reservation_fails = 16344
	L1D_cache_core[66]: Access = 107072, Miss = 88175, Miss_rate = 0.824, Pending_hits = 0, Reservation_fails = 15411
	L1D_cache_core[67]: Access = 110418, Miss = 90130, Miss_rate = 0.816, Pending_hits = 0, Reservation_fails = 13532
	L1D_cache_core[68]: Access = 107072, Miss = 87616, Miss_rate = 0.818, Pending_hits = 0, Reservation_fails = 16013
	L1D_cache_core[69]: Access = 107072, Miss = 89066, Miss_rate = 0.832, Pending_hits = 0, Reservation_fails = 16484
	L1D_cache_core[70]: Access = 107072, Miss = 88207, Miss_rate = 0.824, Pending_hits = 0, Reservation_fails = 14414
	L1D_cache_core[71]: Access = 110418, Miss = 90229, Miss_rate = 0.817, Pending_hits = 0, Reservation_fails = 14352
	L1D_cache_core[72]: Access = 107072, Miss = 88720, Miss_rate = 0.829, Pending_hits = 0, Reservation_fails = 16100
	L1D_cache_core[73]: Access = 107072, Miss = 87989, Miss_rate = 0.822, Pending_hits = 0, Reservation_fails = 15720
	L1D_cache_core[74]: Access = 110418, Miss = 89614, Miss_rate = 0.812, Pending_hits = 0, Reservation_fails = 12616
	L1D_cache_core[75]: Access = 107072, Miss = 88414, Miss_rate = 0.826, Pending_hits = 0, Reservation_fails = 13924
	L1D_cache_core[76]: Access = 110418, Miss = 90935, Miss_rate = 0.824, Pending_hits = 0, Reservation_fails = 13637
	L1D_cache_core[77]: Access = 107072, Miss = 87492, Miss_rate = 0.817, Pending_hits = 0, Reservation_fails = 15721
	L1D_cache_core[78]: Access = 107072, Miss = 87798, Miss_rate = 0.820, Pending_hits = 0, Reservation_fails = 14933
[...]

------------------------------------------------------------------------

Row_Buffer_Locality = 0.939171
Row_Buffer_Locality_read = 0.941601
Row_Buffer_Locality_write = 0.936701
Bank_Level_Parallism = 1.989340
Bank_Level_Parallism_Col = 1.868902
Bank_Level_Parallism_Ready = 1.126125
write_to_read_ratio_blp_rw_average = 0.628122
GrpLevelPara = 1.611544 

BW Util details:
bwutil = 0.217914 
total_CMD = 957925 
util_bw = 208745 
Wasted_Col = 218639 
Wasted_Row = 28510 
Idle = 502031 

BW Util Bottlenecks: 
RCDc_limit = 27250 
RCDWRc_limit = 22246 
WTRc_limit = 109432 
RTWc_limit = 69491 
CCDLc_limit = 185537 
rwq = 0 
CCDLc_limit_alone = 158410 
WTRc_limit_alone = 89007 
RTWc_limit_alone = 62789 

Commands details: 
total_CMD = 957925 
n_nop = 739469 
Read = 58032 
Write = 0 
L2_Alloc = 0 
L2_WB = 150713 
n_act = 7004 
n_pre = 6988 
n_ref = 0 
n_req = 115142 
total_req = 208745 

Dual Bus Interface Util: 
issued_total_row = 13992 
issued_total_col = 208745 
Row_Bus_Util =  0.014607 
CoL_Bus_Util = 0.217914 
Either_Row_CoL_Bus_Util = 0.228051 
Issued_on_Two_Bus_Simul_Util = 0.004469 
issued_two_Eff = 0.019597 
queue_avg = 5.907558 


dram_util_bins: 0 0 0 0 0 0 0 0 0 0
dram_eff_bins: 0 0 0 0 0 0 0 0 0 0
mrqq: max=64 avg=5.90756
Memory Partition 29: 
Cache L2_bank_058:

Cache L2_bank_059:

In Dram Latency Queue (total = 0): 
DRAM[29]: 16 bks, busW=16 BL=2 CL=12, tRRD=3 tCCD=1, tRCD=12 tRAS=28 tRP=12 tRC=40
n_cmd=957925 n_nop=717799 n_act=6610 n_pre=6594 n_ref_event=0 n_req=127790 n_rd=58056 n_rd_L2_A=0 n_write=0 n_wr_bk=173094 bw_util=0.2413
n_activity=553159 dram_eff=0.4179
bk0: 3576a 923061i bk1: 3588a 924602i bk2: 3604a 743680i bk3: 3600a 925173i bk4: 3696a 921975i bk5: 3656a 920652i bk6: 3600a 924708i bk7: 3600a 922719i bk8: 3672a 925046i bk9: 3648a 923009i bk10: 3656a 923358i bk11: 3624a 922268i bk12: 3648a 919880i bk13: 3624a 916322i bk14: 3656a 917387i bk15: 3608a 914227i 

------------------------------------------------------------------------

Row_Buffer_Locality = 0.948274
Row_Buffer_Locality_read = 0.944898
Row_Buffer_Locality_write = 0.951086
Bank_Level_Parallism = 1.801693
Bank_Level_Parallism_Col = 1.691759
Bank_Level_Parallism_Ready = 1.105152
write_to_read_ratio_blp_rw_average = 0.671922
GrpLevelPara = 1.498727 

BW Util details:
bwutil = 0.241303 
total_CMD = 957925 
util_bw = 231150 
Wasted_Col = 233968 
Wasted_Row = 26932 
Idle = 465875 

BW Util Bottlenecks: 
RCDc_limit = 25212 
RCDWRc_limit = 20961 
WTRc_limit = 90912 
RTWc_limit = 63334 
CCDLc_limit = 193927 
rwq = 0 
CCDLc_limit_alone = 173482 
WTRc_limit_alone = 75826 
RTWc_limit_alone = 57975 

Commands details: 
total_CMD = 957925 
n_nop = 717799 
Read = 58056 
Write = 0 
L2_Alloc = 0 
L2_WB = 173094 
n_act = 6610 
n_pre = 6594 
n_ref = 0 
n_req = 127790 
total_req = 231150 

Dual Bus Interface Util: 
issued_total_row = 13204 
issued_total_col = 231150 
Row_Bus_Util =  0.013784 
CoL_Bus_Util = 0.241303 
Either_Row_CoL_Bus_Util = 0.250673 
Issued_on_Two_Bus_Simul_Util = 0.004414 
issued_two_Eff = 0.017607 
queue_avg = 4.965219 


dram_util_bins: 0 0 0 0 0 0 0 0 0 0
dram_eff_bins: 0 0 0 0 0 0 0 0 0 0
mrqq: max=64 avg=4.96522
Memory Partition 30: 
Cache L2_bank_060:

Cache L2_bank_061:

In Dram Latency Queue (total = 0): 
DRAM[30]: 16 bks, busW=16 BL=2 CL=12, tRRD=3 tCCD=1, tRCD=12 tRAS=28 tRP=12 tRC=40
n_cmd=957925 n_nop=718295 n_act=6526 n_pre=6510 n_ref_event=0 n_req=124790 n_rd=57852 n_rd_L2_A=0 n_write=0 n_wr_bk=173026 bw_util=0.241
n_activity=539836 dram_eff=0.4277
bk0: 3584a 921011i bk1: 3560a 922590i bk2: 3584a 746149i bk3: 3592a 923025i bk4: 3672a 918467i bk5: 3640a 917396i bk6: 3584a 922003i bk7: 3608a 920044i bk8: 3672a 923254i bk9: 3648a 922101i bk10: 3632a 923154i bk11: 3640a 919816i bk12: 3632a 919857i bk13: 3616a 918617i bk14: 3608a 915261i bk15: 3580a 911570i 

------------------------------------------------------------------------

Row_Buffer_Locality = 0.947704
Row_Buffer_Locality_read = 0.945343
Row_Buffer_Locality_write = 0.949745
Bank_Level_Parallism = 1.848910
Bank_Level_Parallism_Col = 1.746501
Bank_Level_Parallism_Ready = 1.115646
write_to_read_ratio_blp_rw_average = 0.659557
GrpLevelPara = 1.543211 

BW Util details:
bwutil = 0.241019 
total_CMD = 957925 
util_bw = 230878 
Wasted_Col = 232671 
Wasted_Row = 27159 
Idle = 467217 

BW Util Bottlenecks: 
RCDc_limit = 24902 
RCDWRc_limit = 20853 
WTRc_limit = 102212 
RTWc_limit = 58331 
CCDLc_limit = 199909 
rwq = 0 
CCDLc_limit_alone = 177664 
WTRc_limit_alone = 85077 
RTWc_limit_alone = 53221 

Commands details: 
total_CMD = 957925 
n_nop = 718295 
Read = 57852 
Write = 0 
L2_Alloc = 0 
L2_WB = 173026 
n_act = 6526 
n_pre = 6510 
n_ref = 0 
n_req = 124790 
total_req = 230878 

Dual Bus Interface Util: 
issued_total_row = 13036 
issued_total_col = 230878 
Row_Bus_Util =  0.013609 
CoL_Bus_Util = 0.241019 
Either_Row_CoL_Bus_Util = 0.250155 
Issued_on_Two_Bus_Simul_Util = 0.004472 
issued_two_Eff = 0.017878 
queue_avg = 5.784653 


dram_util_bins: 0 0 0 0 0 0 0 0 0 0
dram_eff_bins: 0 0 0 0 0 0 0 0 0 0
mrqq: max=64 avg=5.78465
Memory Partition 31: 
Cache L2_bank_062:

Cache L2_bank_063:

In Dram Latency Queue (total = 0): 
DRAM[31]: 16 bks, busW=16 BL=2 CL=12, tRRD=3 tCCD=1, tRCD=12 tRAS=28 tRP=12 tRC=40
n_cmd=957925 n_nop=717165 n_act=6500 n_pre=6484 n_ref_event=0 n_req=127960 n_rd=57828 n_rd_L2_A=0 n_write=0 n_wr_bk=174218 bw_util=0.2422
n_activity=557001 dram_eff=0.4166
bk0: 3584a 921435i bk1: 3560a 922722i bk2: 3576a 742658i bk3: 3584a 923932i bk4: 3672a 926071i bk5: 3632a 924425i bk6: 3592a 923603i bk7: 3616a 920472i bk8: 3668a 919122i bk9: 3648a 920692i bk10: 3632a 922965i bk11: 3640a 921229i bk12: 3632a 921939i bk13: 3616a 918743i bk14: 3600a 914254i bk15: 3576a 913136i 

------------------------------------------------------------------------

Row_Buffer_Locality = 0.949203
Row_Buffer_Locality_read = 0.945926
Row_Buffer_Locality_write = 0.951905
Bank_Level_Parallism = 1.809719
Bank_Level_Parallism_Col = 1.705868
Bank_Level_Parallism_Ready = 1.111176
write_to_read_ratio_blp_rw_average = 0.670939
GrpLevelPara = 1.494432 

BW Util details:
bwutil = 0.242238 
total_CMD = 957925 
util_bw = 232046 
Wasted_Col = 236856 
Wasted_Row = 26955 
Idle = 462068 

BW Util Bottlenecks: 
RCDc_limit = 24753 
RCDWRc_limit = 20897 
WTRc_limit = 96374 
RTWc_limit = 62503 
CCDLc_limit = 199356 
rwq = 0 
CCDLc_limit_alone = 176470 
WTRc_limit_alone = 78792 
RTWc_limit_alone = 57199 

Commands details: 
total_CMD = 957925 
n_nop = 717165 
Read = 57828 
Write = 0 
L2_Alloc = 0 
L2_WB = 174218 
n_act = 6500 
n_pre = 6484 
n_ref = 0 
n_req = 127960 
total_req = 232046 

Dual Bus Interface Util: 
issued_total_row = 12984 
issued_total_col = 232046 
Row_Bus_Util =  0.013554 
CoL_Bus_Util = 0.242238 
Either_Row_CoL_Bus_Util = 0.251335 
Issued_on_Two_Bus_Simul_Util = 0.004458 
issued_two_Eff = 0.017736 
queue_avg = 5.232895 


dram_util_bins: 0 0 0 0 0 0 0 0 0 0
dram_eff_bins: 0 0 0 0 0 0 0 0 0 0
mrqq: max=64 avg=5.23289

========= L2 cache stats =========
L2_cache_bank[0]: Access = 247345, Miss = 144255, Miss_rate = 0.583, Pending_hits = 139, Reservation_fails = 14224
L2_cache_bank[1]: Access = 424179, Miss = 154504, Miss_rate = 0.364, Pending_hits = 176, Reservation_fails = 13918
L2_cache_bank[2]: Access = 257064, Miss = 154302, Miss_rate = 0.600, Pending_hits = 163, Reservation_fails = 8865
L2_cache_bank[3]: Access = 438425, Miss = 158855, Miss_rate = 0.362, Pending_hits = 148, Reservation_fails = 13003
L2_cache_bank[4]: Access = 261986, Miss = 158818, Miss_rate = 0.606, Pending_hits = 168, Reservation_fails = 13829
L2_cache_bank[5]: Access = 423724, Miss = 154551, Miss_rate = 0.365, Pending_hits = 151, Reservation_fails = 13953
L2_cache_bank[6]: Access = 257914, Miss = 154536, Miss_rate = 0.599, Pending_hits = 170, Reservation_fails = 14608
L2_cache_bank[7]: Access = 438358, Miss = 158603, Miss_rate = 0.362, Pending_hits = 163, Reservation_fails = 13064
L2_cache_bank[8]: Access = 263090, Miss = 158672, Miss_rate = 0.603, Pending_hits = 165, Reservation_fails = 19135
L2_cache_bank[9]: Access = 424815, Miss = 154346, Miss_rate = 0.363, Pending_hits = 165, Reservation_fails = 13243
L2_cache_bank[10]: Access = 259001, Miss = 154519, Miss_rate = 0.597, Pending_hits = 167, Reservation_fails = 7769
L2_cache_bank[11]: Access = 439564, Miss = 158518, Miss_rate = 0.361, Pending_hits = 167, Reservation_fails = 9269
L2_cache_bank[12]: Access = 262971, Miss = 158701, Miss_rate = 0.603, Pending_hits = 178, Reservation_fails = 15072
L2_cache_bank[13]: Access = 424529, Miss = 154326, Miss_rate = 0.364, Pending_hits = 161, Reservation_fails = 12869
L2_cache_bank[14]: Access = 258691, Miss = 154516, Miss_rate = 0.597, Pending_hits = 166, Reservation_fails = 8597
L2_cache_bank[15]: Access = 438846, Miss = 158505, Miss_rate = 0.361, Pending_hits = 159, Reservation_fails = 10872
L2_cache_bank[16]: Access = 263062, Miss = 158688, Miss_rate = 0.603, Pending_hits = 182, Reservation_fails = 12228
L2_cache_bank[17]: Access = 425040, Miss = 154399, Miss_rate = 0.363, Pending_hits = 165, Reservation_fails = 9742
L2_cache_bank[18]: Access = 258921, Miss = 154492, Miss_rate = 0.597, Pending_hits = 160, Reservation_fails = 13624
L2_cache_bank[19]: Access = 439459, Miss = 158554, Miss_rate = 0.361, Pending_hits = 152, Reservation_fails = 12263
L2_cache_bank[20]: Access = 262821, Miss = 158583, Miss_rate = 0.603, Pending_hits = 159, Reservation_fails = 13529
L2_cache_bank[21]: Access = 424122, Miss = 154228, Miss_rate = 0.364, Pending_hits = 167, Reservation_fails = 12336
L2_cache_bank[22]: Access = 258477, Miss = 154409, Miss_rate = 0.597, Pending_hits = 139, Reservation_fails = 7379
L2_cache_bank[23]: Access = 221807, Miss = 85069, Miss_rate = 0.384, Pending_hits = 162, Reservation_fails = 11255
L2_cache_bank[24]: Access = 215882, Miss = 158712, Miss_rate = 0.735, Pending_hits = 160, Reservation_fails = 4263
L2_cache_bank[25]: Access = 128136, Miss = 71194, Miss_rate = 0.556, Pending_hits = 168, Reservation_fails = 5658
L2_cache_bank[26]: Access = 257876, Miss = 154540, Miss_rate = 0.599, Pending_hits = 143, Reservation_fails = 8405
L2_cache_bank[27]: Access = 174496, Miss = 71180, Miss_rate = 0.408, Pending_hits = 144, Reservation_fails = 9437
L2_cache_bank[28]: Access = 262327, Miss = 158573, Miss_rate = 0.604, Pending_hits = 155, Reservation_fails = 10630
L2_cache_bank[29]: Access = 174642, Miss = 71070, Miss_rate = 0.407, Pending_hits = 155, Reservation_fails = 7925
L2_cache_bank[30]: Access = 257812, Miss = 154399, Miss_rate = 0.599, Pending_hits = 155, Reservation_fails = 7270
L2_cache_bank[31]: Access = 174101, Miss = 71078, Miss_rate = 0.408, Pending_hits = 156, Reservation_fails = 8682
L2_cache_bank[32]: Access = 188721, Miss = 85448, Miss_rate = 0.453, Pending_hits = 144, Reservation_fails = 6832
L2_cache_bank[33]: Access = 174480, Miss = 71123, Miss_rate = 0.408, Pending_hits = 153, Reservation_fails = 7834
L2_cache_bank[34]: Access = 174820, Miss = 71598, Miss_rate = 0.410, Pending_hits = 157, Reservation_fails = 6302
L2_cache_bank[35]: Access = 174535, Miss = 71309, Miss_rate = 0.409, Pending_hits = 149, Reservation_fails = 4808
L2_cache_bank[36]: Access = 174863, Miss = 71539, Miss_rate = 0.409, Pending_hits = 135, Reservation_fails = 4472
L2_cache_bank[37]: Access = 174384, Miss = 71245, Miss_rate = 0.409, Pending_hits = 163, Reservation_fails = 9392
L2_cache_bank[38]: Access = 174830, Miss = 71461, Miss_rate = 0.409, Pending_hits = 135, Reservation_fails = 7615
L2_cache_bank[39]: Access = 174104, Miss = 71120, Miss_rate = 0.408, Pending_hits = 150, Reservation_fails = 8749
L2_cache_bank[40]: Access = 175939, Miss = 71408, Miss_rate = 0.406, Pending_hits = 157, Reservation_fails = 8118
L2_cache_bank[41]: Access = 175065, Miss = 71073, Miss_rate = 0.406, Pending_hits = 144, Reservation_fails = 8988
L2_cache_bank[42]: Access = 176121, Miss = 71401, Miss_rate = 0.405, Pending_hits = 158, Reservation_fails = 7569
L2_cache_bank[43]: Access = 175286, Miss = 71087, Miss_rate = 0.406, Pending_hits = 142, Reservation_fails = 6266
L2_cache_bank[44]: Access = 175540, Miss = 71452, Miss_rate = 0.407, Pending_hits = 154, Reservation_fails = 9196
L2_cache_bank[45]: Access = 175000, Miss = 71051, Miss_rate = 0.406, Pending_hits = 161, Reservation_fails = 7761
L2_cache_bank[46]: Access = 175696, Miss = 71469, Miss_rate = 0.407, Pending_hits = 139, Reservation_fails = 7839
L2_cache_bank[47]: Access = 175789, Miss = 71121, Miss_rate = 0.405, Pending_hits = 174, Reservation_fails = 7943
L2_cache_bank[48]: Access = 175453, Miss = 71458, Miss_rate = 0.407, Pending_hits = 172, Reservation_fails = 10341
L2_cache_bank[49]: Access = 175721, Miss = 71161, Miss_rate = 0.405, Pending_hits = 165, Reservation_fails = 11154
L2_cache_bank[50]: Access = 175557, Miss = 71395, Miss_rate = 0.407, Pending_hits = 154, Reservation_fails = 5451
L2_cache_bank[51]: Access = 175935, Miss = 71132, Miss_rate = 0.404, Pending_hits = 155, Reservation_fails = 5684
L2_cache_bank[52]: Access = 175555, Miss = 71405, Miss_rate = 0.407, Pending_hits = 157, Reservation_fails = 8831
L2_cache_bank[53]: Access = 175943, Miss = 71163, Miss_rate = 0.404, Pending_hits = 165, Reservation_fails = 9356
L2_cache_bank[54]: Access = 392246, Miss = 144638, Miss_rate = 0.369, Pending_hits = 168, Reservation_fails = 12999
L2_cache_bank[55]: Access = 175775, Miss = 71194, Miss_rate = 0.405, Pending_hits = 173, Reservation_fails = 11233
L2_cache_bank[56]: Access = 377612, Miss = 154615, Miss_rate = 0.409, Pending_hits = 164, Reservation_fails = 16780
L2_cache_bank[57]: Access = 128734, Miss = 71232, Miss_rate = 0.553, Pending_hits = 175, Reservation_fails = 14959
L2_cache_bank[58]: Access = 438407, Miss = 158779, Miss_rate = 0.362, Pending_hits = 148, Reservation_fails = 10463
L2_cache_bank[59]: Access = 174846, Miss = 71226, Miss_rate = 0.407, Pending_hits = 176, Reservation_fails = 10137
L2_cache_bank[60]: Access = 424064, Miss = 154459, Miss_rate = 0.364, Pending_hits = 165, Reservation_fails = 10543
L2_cache_bank[61]: Access = 175033, Miss = 71163, Miss_rate = 0.407, Pending_hits = 168, Reservation_fails = 13316
L2_cache_bank[62]: Access = 438248, Miss = 158620, Miss_rate = 0.362, Pending_hits = 168, Reservation_fails = 9793
L2_cache_bank[63]: Access = 174520, Miss = 71115, Miss_rate = 0.407, Pending_hits = 157, Reservation_fails = 9637
L2_total_cache_accesses = 16488305
L2_total_cache_misses = 7289355
L2_total_cache_miss_rate = 0.4421
L2_total_cache_pending_hits = 10173
L2_total_cache_reservation_fails = 647277
L2_total_cache_breakdown:
	L2_cache_stats_breakdown[GLOBAL_ACC_R][HIT] = 615652
	L2_cache_stats_breakdown[GLOBAL_ACC_R][HIT_RESERVED] = 10173
	L2_cache_stats_breakdown[GLOBAL_ACC_R][MISS] = 462990
	L2_cache_stats_breakdown[GLOBAL_ACC_R][RESERVATION_FAIL] = 647277
	L2_cache_stats_breakdown[GLOBAL_ACC_R][SECTOR_MISS] = 1388958
	L2_cache_stats_breakdown[LOCAL_ACC_R][HIT] = 0
	L2_cache_stats_breakdown[LOCAL_ACC_R][HIT_RESERVED] = 0
	L2_cache_stats_breakdown[LOCAL_ACC_R][MISS] = 0
	L2_cache_stats_breakdown[LOCAL_ACC_R][RESERVATION_FAIL] = 0
	L2_cache_stats_breakdown[LOCAL_ACC_R][SECTOR_MISS] = 0
	L2_cache_stats_breakdown[CONST_ACC_R][HIT] = 0
	L2_cache_stats_breakdown[CONST_ACC_R][HIT_RESERVED] = 0
	L2_cache_stats_breakdown[CONST_ACC_R][MISS] = 0
	L2_cache_stats_breakdown[CONST_ACC_R][RESERVATION_FAIL] = 0
	L2_cache_stats_breakdown[CONST_ACC_R][SECTOR_MISS] = 0
	L2_cache_stats_breakdown[TEXTURE_ACC_R][HIT] = 0
	L2_cache_stats_breakdown[TEXTURE_ACC_R][HIT_RESERVED] = 0
	L2_cache_stats_breakdown[TEXTURE_ACC_R][MISS] = 0
	L2_cache_stats_breakdown[TEXTURE_ACC_R][RESERVATION_FAIL] = 0
	L2_cache_stats_breakdown[TEXTURE_ACC_R][SECTOR_MISS] = 0
	L2_cache_stats_breakdown[GLOBAL_ACC_W][HIT] = 8573125
	L2_cache_stats_breakdown[GLOBAL_ACC_W][HIT_RESERVED] = 0
	L2_cache_stats_breakdown[GLOBAL_ACC_W][MISS] = 167953
	L2_cache_stats_breakdown[GLOBAL_ACC_W][RESERVATION_FAIL] = 0
	L2_cache_stats_breakdown[GLOBAL_ACC_W][SECTOR_MISS] = 5269454
	L2_cache_stats_breakdown[LOCAL_ACC_W][HIT] = 0
	L2_cache_stats_breakdown[LOCAL_ACC_W][HIT_RESERVED] = 0
	L2_cache_stats_breakdown[LOCAL_ACC_W][MISS] = 0
	L2_cache_stats_breakdown[LOCAL_ACC_W][RESERVATION_FAIL] = 0
	L2_cache_stats_breakdown[LOCAL_ACC_W][SECTOR_MISS] = 0
	L2_cache_stats_breakdown[L1_WRBK_ACC][HIT] = 0
	L2_cache_stats_breakdown[L1_WRBK_ACC][HIT_RESERVED] = 0
	L2_cache_stats_breakdown[L1_WRBK_ACC][MISS] = 0
	L2_cache_stats_breakdown[L1_WRBK_ACC][RESERVATION_FAIL] = 0
	L2_cache_stats_breakdown[L1_WRBK_ACC][SECTOR_MISS] = 0
	L2_cache_stats_breakdown[L2_WRBK_ACC][HIT] = 0
	L2_cache_stats_breakdown[L2_WRBK_ACC][HIT_RESERVED] = 0
	L2_cache_stats_breakdown[L2_WRBK_ACC][MISS] = 0
	L2_cache_stats_breakdown[L2_WRBK_ACC][RESERVATION_FAIL] = 0
	L2_cache_stats_breakdown[L2_WRBK_ACC][SECTOR_MISS] = 0
	L2_cache_stats_breakdown[INST_ACC_R][HIT] = 0
	L2_cache_stats_breakdown[INST_ACC_R][HIT_RESERVED] = 0
	L2_cache_stats_breakdown[INST_ACC_R][MISS] = 0
	L2_cache_stats_breakdown[INST_ACC_R][RESERVATION_FAIL] = 0
	L2_cache_stats_breakdown[INST_ACC_R][SECTOR_MISS] = 0
	L2_cache_stats_breakdown[L1_WR_ALLOC_R][HIT] = 0
	L2_cache_stats_breakdown[L1_WR_ALLOC_R][HIT_RESERVED] = 0
	L2_cache_stats_breakdown[L1_WR_ALLOC_R][MISS] = 0
	L2_cache_stats_breakdown[L1_WR_ALLOC_R][RESERVATION_FAIL] = 0
	L2_cache_stats_breakdown[L1_WR_ALLOC_R][SECTOR_MISS] = 0
	L2_cache_stats_breakdown[L2_WR_ALLOC_R][HIT] = 0
	L2_cache_stats_breakdown[L2_WR_ALLOC_R][HIT_RESERVED] = 0
	L2_cache_stats_breakdown[L2_WR_ALLOC_R][MISS] = 0
	L2_cache_stats_breakdown[L2_WR_ALLOC_R][RESERVATION_FAIL] = 0
	L2_cache_stats_breakdown[L2_WR_ALLOC_R][SECTOR_MISS] = 0
	L2_cache_stats_breakdown[GLOBAL_ACC_R][TOTAL_ACCESS] = 2477773
	L2_cache_stats_breakdown[GLOBAL_ACC_W][TOTAL_ACCESS] = 14010532
L2_total_cache_reservation_fail_breakdown:
	L2_cache_stats_fail_breakdown[GLOBAL_ACC_R][MSHR_ENRTY_FAIL] = 200686
	L2_cache_stats_fail_breakdown[GLOBAL_ACC_R][MSHR_MERGE_ENRTY_FAIL] = 446591
L2_cache_data_port_util = 0.140
L2_cache_fill_port_util = 0.023

icnt_total_pkts_mem_to_simt=21136177
icnt_total_pkts_simt_to_mem=21136177
LD_mem_lat_dist  0 0 0 0 0 0 0 0 0 0 0 0 0 0 0 0 0 0 0 0 0 0 0 0 0 0 0
ST_mem_lat_dist  0 0 0 0 0 0 0 0 0 0 0 0 0 0 0 0 0 0 0 0 0 0 0 0 0 0 0
----------------------------Interconnect-DETAILS--------------------------------
Req_Network_injected_packets_num = 21136177
Req_Network_cycles = 1275731
Req_Network_injected_packets_per_cycle =      16.5679 
Req_Network_conflicts_per_cycle =      20.3206
Req_Network_conflicts_per_cycle_util =      21.2582
Req_Bank_Level_Parallism =      17.3324
Req_Network_in_buffer_full_per_cycle =       6.8611
Req_Network_in_buffer_avg_util =     111.8487
Req_Network_out_buffer_full_per_cycle =       0.1054
Req_Network_out_buffer_avg_util =       7.8368

Reply_Network_injected_packets_num = 21136177
Reply_Network_cycles = 1275731
Reply_Network_injected_packets_per_cycle =       16.5679
Reply_Network_conflicts_per_cycle =       15.5512
Reply_Network_conflicts_per_cycle_util =      16.2914
Reply_Bank_Level_Parallism =      17.3565
Reply_Network_in_buffer_full_per_cycle =       0.0024
Reply_Network_in_buffer_avg_util =      16.5335
Reply_Network_out_buffer_full_per_cycle =       0.0000
Reply_Network_out_buffer_avg_util =       0.2071
----------------------------END-of-Interconnect-DETAILS-------------------------


gpgpu_simulation_time = 0 days, 4 hrs, 7 min, 31 sec (14851 sec)
gpgpu_simulation_rate = 257008 (inst/sec)
gpgpu_simulation_rate = 85 (cycle/sec)
gpgpu_silicon_slowdown = 13317647x
GPGPU-Sim: synchronize waiting for inactive GPU simulation
GPGPU-Sim API: Stream Manager State
GPGPU-Sim: detected inactive GPU simulation thread
GPGPU-Sim: *** exit detected ***
