

        *** GPGPU-Sim Simulator Version 4.0.0  [build gpgpu-sim_git-commit-ffe0a1a00e984ecce9bf36e17ab94c4de0de8108_modified_0.0] ***


GPGPU-Sim PTX: simulation mode 0 (can change with PTX_SIM_MODE_FUNC environment variable:
               1=functional simulation only, 0=detailed performance simulator)
GPGPU-Sim PTX: overriding embedded ptx with ptx file (PTX_SIM_USE_PTX_FILE is set)
GPGPU-Sim: Configuration options:

-save_embedded_ptx                      0 # saves ptx files embedded in binary as <n>.ptx
-keep                                   0 # keep intermediate files created by GPGPU-Sim when interfacing with external programs
-gpgpu_ptx_save_converted_ptxplus                    0 # Saved converted ptxplus to a file
-gpgpu_occupancy_sm_number                   70 # The SM number to pass to ptxas when getting register usage for computing GPU occupancy. This parameter is required in the config.
-ptx_opcode_latency_int      4,13,4,5,145,21 # Opcode latencies for integers <ADD,MAX,MUL,MAD,DIV,SHFL>Default 1,1,19,25,145,32
-ptx_opcode_latency_fp          4,13,4,5,39 # Opcode latencies for single precision floating points <ADD,MAX,MUL,MAD,DIV>Default 1,1,1,1,30
-ptx_opcode_latency_dp         8,19,8,8,330 # Opcode latencies for double precision floating points <ADD,MAX,MUL,MAD,DIV>Default 8,8,8,8,335
-ptx_opcode_latency_sfu                  100 # Opcode latencies for SFU instructionsDefault 8
-ptx_opcode_latency_tesnor                   64 # Opcode latencies for Tensor instructionsDefault 64
-ptx_opcode_initiation_int          2,2,2,2,8,4 # Opcode initiation intervals for integers <ADD,MAX,MUL,MAD,DIV,SHFL>Default 1,1,4,4,32,4
-ptx_opcode_initiation_fp            2,2,2,2,4 # Opcode initiation intervals for single precision floating points <ADD,MAX,MUL,MAD,DIV>Default 1,1,1,1,5
-ptx_opcode_initiation_dp          4,4,4,4,130 # Opcode initiation intervals for double precision floating points <ADD,MAX,MUL,MAD,DIV>Default 8,8,8,8,130
-ptx_opcode_initiation_sfu                    8 # Opcode initiation intervals for sfu instructionsDefault 8
-ptx_opcode_initiation_tensor                   64 # Opcode initiation intervals for tensor instructionsDefault 64
-cdp_latency         7200,8000,100,12000,1600 # CDP API latency <cudaStreamCreateWithFlags, cudaGetParameterBufferV2_init_perWarp, cudaGetParameterBufferV2_perKernel, cudaLaunchDeviceV2_init_perWarp, cudaLaunchDevicV2_perKernel>Default 7200,8000,100,12000,1600
-network_mode                           2 # Interconnection network mode
-inter_config_file                   mesh # Interconnection network config file
-icnt_in_buffer_limit                  512 # in_buffer_limit
-icnt_out_buffer_limit                  512 # out_buffer_limit
-icnt_subnets                           2 # subnets
-icnt_arbiter_algo                      1 # arbiter_algo
-icnt_verbose                           0 # inct_verbose
-icnt_grant_cycles                      1 # grant_cycles
-gpgpu_ptx_use_cuobjdump                    1 # Use cuobjdump to extract ptx and sass from binaries
-gpgpu_experimental_lib_support                    0 # Try to extract code from cuda libraries [Broken because of unknown cudaGetExportTable]
-checkpoint_option                      0 #  checkpointing flag (0 = no checkpoint)
-checkpoint_kernel                      1 #  checkpointing during execution of which kernel (1- 1st kernel)
-checkpoint_CTA                         0 #  checkpointing after # of CTA (< less than total CTA)
-resume_option                          0 #  resume flag (0 = no resume)
-resume_kernel                          0 #  Resume from which kernel (1= 1st kernel)
-resume_CTA                             0 #  resume from which CTA 
-checkpoint_CTA_t                       0 #  resume from which CTA 
-checkpoint_insn_Y                      0 #  resume from which CTA 
-gpgpu_ptx_convert_to_ptxplus                    0 # Convert SASS (native ISA) to ptxplus and run ptxplus
-gpgpu_ptx_force_max_capability                   70 # Force maximum compute capability
-gpgpu_ptx_inst_debug_to_file                    0 # Dump executed instructions' debug information to file
-gpgpu_ptx_inst_debug_file       inst_debug.txt # Executed instructions' debug output file
-gpgpu_ptx_inst_debug_thread_uid                    1 # Thread UID for executed instructions' debug output
-gpgpu_n_mem_for_l2wb_pcommit                   32 # number of memory modules (e.g. memory controllers) in gpu
-gpgpu_n_sub_partition_per_mchannel_for_l2wb_pcommit                    2 # number of memory subpartition in each memory module
-gpgpu_dl2_bsize_for_l2wb_pcommit                  128 # default 128 bytes
-gpgpu_simd_model                       1 # 1 = post-dominator
-gpgpu_shader_core_pipeline              2048:32 # shader core pipeline config, i.e., {<nthread>:<warpsize>}
-gpgpu_tex_cache:l1  N:4:128:256,L:R:m:N:L,T:512:8,128:2 # per-shader L1 texture cache  (READ-ONLY) config  {<nsets>:<bsize>:<assoc>,<rep>:<wr>:<alloc>:<wr_alloc>,<mshr>:<N>:<merge>,<mq>:<rf>}
-gpgpu_const_cache:l1 N:128:64:8,L:R:f:N:L,S:2:64,4 # per-shader L1 constant memory cache  (READ-ONLY) config  {<nsets>:<bsize>:<assoc>,<rep>:<wr>:<alloc>:<wr_alloc>,<mshr>:<N>:<merge>,<mq>} 
-gpgpu_cache:il1     N:64:128:16,L:R:f:N:L,S:2:48,4 # shader L1 instruction cache config  {<nsets>:<bsize>:<assoc>,<rep>:<wr>:<alloc>:<wr_alloc>,<mshr>:<N>:<merge>,<mq>} 
-gpgpu_cache:dl1     S:1:128:256,L:L:s:N:L,A:256:8,16:0,32 # per-shader L1 data cache config  {<nsets>:<bsize>:<assoc>,<rep>:<wr>:<alloc>:<wr_alloc>,<mshr>:<N>:<merge>,<mq> | none}
-gpgpu_l1_banks                         4 # The number of L1 cache banks
-gpgpu_l1_banks_byte_interleaving                   32 # l1 banks byte interleaving granularity
-gpgpu_l1_banks_hashing_function                    0 # l1 banks hashing function
-gpgpu_l1_latency                      20 # L1 Hit Latency
-gpgpu_smem_latency                    20 # smem Latency
-gpgpu_cache:dl1PrefL1                 none # per-shader L1 data cache config  {<nsets>:<bsize>:<assoc>,<rep>:<wr>:<alloc>:<wr_alloc>,<mshr>:<N>:<merge>,<mq> | none}
-gpgpu_cache:dl1PrefShared                 none # per-shader L1 data cache config  {<nsets>:<bsize>:<assoc>,<rep>:<wr>:<alloc>:<wr_alloc>,<mshr>:<N>:<merge>,<mq> | none}
-gpgpu_gmem_skip_L1D                    0 # global memory access skip L1D cache (implements -Xptxas -dlcm=cg, default=no skip)
-gpgpu_perfect_mem                      0 # enable perfect memory mode (no cache miss)
-n_regfile_gating_group                    4 # group of lanes that should be read/written together)
-gpgpu_clock_gated_reg_file                    0 # enable clock gated reg file for power calculations
-gpgpu_clock_gated_lanes                    0 # enable clock gated lanes for power calculations
-gpgpu_shader_registers                65536 # Number of registers per shader core. Limits number of concurrent CTAs. (default 8192)
-gpgpu_registers_per_block                65536 # Maximum number of registers per CTA. (default 8192)
-gpgpu_ignore_resources_limitation                    0 # gpgpu_ignore_resources_limitation (default 0)
-gpgpu_shader_cta                      32 # Maximum number of concurrent CTAs in shader (default 8)
-gpgpu_num_cta_barriers                   16 # Maximum number of named barriers per CTA (default 16)
-gpgpu_n_clusters                      80 # number of processing clusters
-gpgpu_n_cores_per_cluster                    1 # number of simd cores per cluster
-gpgpu_n_cluster_ejection_buffer_size                   32 # number of packets in ejection buffer
-gpgpu_n_ldst_response_buffer_size                    2 # number of response packets in ld/st unit ejection buffer
-gpgpu_shmem_per_block                65536 # Size of shared memory per thread block or CTA (default 48kB)
-gpgpu_shmem_size                   98304 # Size of shared memory per shader core (default 16kB)
-gpgpu_adaptive_cache_config            536870913 # adaptive_cache_config
-gpgpu_shmem_sizeDefault                98304 # Size of shared memory per shader core (default 16kB)
-gpgpu_shmem_size_PrefL1                16384 # Size of shared memory per shader core (default 16kB)
-gpgpu_shmem_size_PrefShared                16384 # Size of shared memory per shader core (default 16kB)
-gpgpu_shmem_num_banks                   32 # Number of banks in the shared memory in each shader core (default 16)
-gpgpu_shmem_limited_broadcast                    0 # Limit shared memory to do one broadcast per cycle (default on)
-gpgpu_shmem_warp_parts                    1 # Number of portions a warp is divided into for shared memory bank conflict check 
-gpgpu_mem_unit_ports                    1 # The number of memory transactions allowed per core cycle
-gpgpu_shmem_warp_parts                    1 # Number of portions a warp is divided into for shared memory bank conflict check 
-gpgpu_warpdistro_shader                   -1 # Specify which shader core to collect the warp size distribution from
-gpgpu_warp_issue_shader                    0 # Specify which shader core to collect the warp issue distribution from
-gpgpu_local_mem_map                    1 # Mapping from local memory space address to simulated GPU physical address space (default = enabled)
-gpgpu_num_reg_banks                   16 # Number of register banks (default = 8)
-gpgpu_reg_bank_use_warp_id                    0 # Use warp ID in mapping registers to banks (default = off)
-gpgpu_sub_core_model                    1 # Sub Core Volta/Pascal model (default = off)
-gpgpu_enable_specialized_operand_collector                    0 # enable_specialized_operand_collector
-gpgpu_operand_collector_num_units_sp                    4 # number of collector units (default = 4)
-gpgpu_operand_collector_num_units_dp                    0 # number of collector units (default = 0)
-gpgpu_operand_collector_num_units_sfu                    4 # number of collector units (default = 4)
-gpgpu_operand_collector_num_units_int                    0 # number of collector units (default = 0)
-gpgpu_operand_collector_num_units_tensor_core                    4 # number of collector units (default = 4)
-gpgpu_operand_collector_num_units_mem                    2 # number of collector units (default = 2)
-gpgpu_operand_collector_num_units_gen                    8 # number of collector units (default = 0)
-gpgpu_operand_collector_num_in_ports_sp                    1 # number of collector unit in ports (default = 1)
-gpgpu_operand_collector_num_in_ports_dp                    0 # number of collector unit in ports (default = 0)
-gpgpu_operand_collector_num_in_ports_sfu                    1 # number of collector unit in ports (default = 1)
-gpgpu_operand_collector_num_in_ports_int                    0 # number of collector unit in ports (default = 0)
-gpgpu_operand_collector_num_in_ports_tensor_core                    1 # number of collector unit in ports (default = 1)
-gpgpu_operand_collector_num_in_ports_mem                    1 # number of collector unit in ports (default = 1)
-gpgpu_operand_collector_num_in_ports_gen                    8 # number of collector unit in ports (default = 0)
-gpgpu_operand_collector_num_out_ports_sp                    1 # number of collector unit in ports (default = 1)
-gpgpu_operand_collector_num_out_ports_dp                    0 # number of collector unit in ports (default = 0)
-gpgpu_operand_collector_num_out_ports_sfu                    1 # number of collector unit in ports (default = 1)
-gpgpu_operand_collector_num_out_ports_int                    0 # number of collector unit in ports (default = 0)
-gpgpu_operand_collector_num_out_ports_tensor_core                    1 # number of collector unit in ports (default = 1)
-gpgpu_operand_collector_num_out_ports_mem                    1 # number of collector unit in ports (default = 1)
-gpgpu_operand_collector_num_out_ports_gen                    8 # number of collector unit in ports (default = 0)
-gpgpu_coalesce_arch                   60 # Coalescing arch (GT200 = 13, Fermi = 20)
-gpgpu_num_sched_per_core                    4 # Number of warp schedulers per core
-gpgpu_max_insn_issue_per_warp                    1 # Max number of instructions that can be issued per warp in one cycle by scheduler (either 1 or 2)
-gpgpu_dual_issue_diff_exec_units                    1 # should dual issue use two different execution unit resources (Default = 1)
-gpgpu_simt_core_sim_order                    1 # Select the simulation order of cores in a cluster (0=Fix, 1=Round-Robin)
-gpgpu_pipeline_widths 4,4,4,4,4,4,4,4,4,4,8,4,4 # Pipeline widths ID_OC_SP,ID_OC_DP,ID_OC_INT,ID_OC_SFU,ID_OC_MEM,OC_EX_SP,OC_EX_DP,OC_EX_INT,OC_EX_SFU,OC_EX_MEM,EX_WB,ID_OC_TENSOR_CORE,OC_EX_TENSOR_CORE
-gpgpu_tensor_core_avail                    1 # Tensor Core Available (default=0)
-gpgpu_num_sp_units                     4 # Number of SP units (default=1)
-gpgpu_num_dp_units                     4 # Number of DP units (default=0)
-gpgpu_num_int_units                    4 # Number of INT units (default=0)
-gpgpu_num_sfu_units                    4 # Number of SF units (default=1)
-gpgpu_num_tensor_core_units                    4 # Number of tensor_core units (default=1)
-gpgpu_num_mem_units                    1 # Number if ldst units (default=1) WARNING: not hooked up to anything
-gpgpu_scheduler                      gto # Scheduler configuration: < lrr | gto | two_level_active > If two_level_active:<num_active_warps>:<inner_prioritization>:<outer_prioritization>For complete list of prioritization values see shader.h enum scheduler_prioritization_typeDefault: gto
-gpgpu_concurrent_kernel_sm                    0 # Support concurrent kernels on a SM (default = disabled)
-gpgpu_perfect_inst_const_cache                    1 # perfect inst and const cache mode, so all inst and const hits in the cache(default = disabled)
-gpgpu_inst_fetch_throughput                    4 # the number of fetched intruction per warp each cycle
-gpgpu_reg_file_port_throughput                    2 # the number ports of the register file
-specialized_unit_1         0,4,4,4,4,BRA # specialized unit config {<enabled>,<num_units>:<latency>:<initiation>,<ID_OC_SPEC>:<OC_EX_SPEC>,<NAME>}
-specialized_unit_2         0,4,4,4,4,BRA # specialized unit config {<enabled>,<num_units>:<latency>:<initiation>,<ID_OC_SPEC>:<OC_EX_SPEC>,<NAME>}
-specialized_unit_3         0,4,4,4,4,BRA # specialized unit config {<enabled>,<num_units>:<latency>:<initiation>,<ID_OC_SPEC>:<OC_EX_SPEC>,<NAME>}
-specialized_unit_4         0,4,4,4,4,BRA # specialized unit config {<enabled>,<num_units>:<latency>:<initiation>,<ID_OC_SPEC>:<OC_EX_SPEC>,<NAME>}
-specialized_unit_5         0,4,4,4,4,BRA # specialized unit config {<enabled>,<num_units>:<latency>:<initiation>,<ID_OC_SPEC>:<OC_EX_SPEC>,<NAME>}
-specialized_unit_6         0,4,4,4,4,BRA # specialized unit config {<enabled>,<num_units>:<latency>:<initiation>,<ID_OC_SPEC>:<OC_EX_SPEC>,<NAME>}
-specialized_unit_7         0,4,4,4,4,BRA # specialized unit config {<enabled>,<num_units>:<latency>:<initiation>,<ID_OC_SPEC>:<OC_EX_SPEC>,<NAME>}
-specialized_unit_8         0,4,4,4,4,BRA # specialized unit config {<enabled>,<num_units>:<latency>:<initiation>,<ID_OC_SPEC>:<OC_EX_SPEC>,<NAME>}
-gpgpu_perf_sim_memcpy                    1 # Fill the L2 cache on memcpy
-gpgpu_simple_dram_model                    0 # simple_dram_model with fixed latency and BW
-gpgpu_dram_scheduler                    1 # 0 = fifo, 1 = FR-FCFS (defaul)
-gpgpu_dram_partition_queues          64:64:64:64 # i2$:$2d:d2$:$2i
-l2_ideal                               0 # Use a ideal L2 cache that always hit
-gpgpu_cache:dl2     S:32:128:24,L:B:m:L:P,A:192:4,32:0,32 # unified banked L2 data cache config  {<nsets>:<bsize>:<assoc>,<rep>:<wr>:<alloc>:<wr_alloc>,<mshr>:<N>:<merge>,<mq>}
-gpgpu_cache:dl2_texture_only                    0 # L2 cache used for texture only
-gpgpu_n_mem                           32 # number of memory modules (e.g. memory controllers) in gpu
-gpgpu_n_sub_partition_per_mchannel                    2 # number of memory subpartition in each memory module
-gpgpu_n_mem_per_ctrlr                    1 # number of memory chips per memory controller
-gpgpu_memlatency_stat                   14 # track and display latency statistics 0x2 enables MC, 0x4 enables queue logs
-gpgpu_frfcfs_dram_sched_queue_size                   64 # 0 = unlimited (default); # entries per chip
-gpgpu_dram_return_queue_size                  192 # 0 = unlimited (default); # entries per chip
-gpgpu_dram_buswidth                   16 # default = 4 bytes (8 bytes per cycle at DDR)
-gpgpu_dram_burst_length                    2 # Burst length of each DRAM request (default = 4 data bus cycle)
-dram_data_command_freq_ratio                    2 # Frequency ratio between DRAM data bus and command bus (default = 2 times, i.e. DDR)
-gpgpu_dram_timing_opt nbk=16:CCD=1:RRD=3:RCD=12:RAS=28:RP=12:RC=40: CL=12:WL=2:CDLR=3:WR=10:nbkgrp=4:CCDL=2:RTPL=3 # DRAM timing parameters = {nbk:tCCD:tRRD:tRCD:tRAS:tRP:tRC:CL:WL:tCDLR:tWR:nbkgrp:tCCDL:tRTPL}
-gpgpu_l2_rop_latency                  160 # ROP queue latency (default 85)
-dram_latency                         200 # DRAM latency (default 30)
-dram_write_latency                   600 # DRAM write latency (default 100)
-dram_dual_bus_interface                    1 # dual_bus_interface (default = 0) 
-dram_bnk_indexing_policy                    0 # dram_bnk_indexing_policy (0 = normal indexing, 1 = Xoring with the higher bits) (Default = 0)
-dram_bnkgrp_indexing_policy                    1 # dram_bnkgrp_indexing_policy (0 = take higher bits, 1 = take lower bits) (Default = 0)
-dram_seperate_write_queue_enable                    0 # Seperate_Write_Queue_Enable
-dram_write_queue_size             32:28:16 # Write_Queue_Size
-dram_elimnate_rw_turnaround                    0 # elimnate_rw_turnaround i.e set tWTR and tRTW = 0
-icnt_flit_size                        40 # icnt_flit_size
-gpgpu_mem_addr_mapping dramid@8;00000000.00000000.00000000.00000000.0000RRRR.RRRRRRRR.RBBBCCCB.CCCSSSSS # mapping memory address to dram model {dramid@<start bit>;<memory address map>}
-gpgpu_mem_addr_test                    0 # run sweep test to check address mapping for aliased address
-gpgpu_mem_address_mask                    1 # 0 = old addressing mask, 1 = new addressing mask, 2 = new add. mask + flipped bank sel and chip sel bits
-gpgpu_memory_partition_indexing                    0 # 0 = no indexing, 1 = bitwise xoring, 2 = IPoly, 3 = custom indexing
-gpuwattch_xml_file         gpuwattch.xml # GPUWattch XML file
-power_simulation_enabled                    0 # Turn on power simulator (1=On, 0=Off)
-power_per_cycle_dump                    0 # Dump detailed power output each cycle
-power_trace_enabled                    0 # produce a file for the power trace (1=On, 0=Off)
-power_trace_zlevel                     6 # Compression level of the power trace output log (0=no comp, 9=highest)
-steady_power_levels_enabled                    0 # produce a file for the steady power levels (1=On, 0=Off)
-steady_state_definition                  8:4 # allowed deviation:number of samples
-gpgpu_max_cycle                        0 # terminates gpu simulation early (0 = no limit)
-gpgpu_max_insn                         0 # terminates gpu simulation early (0 = no limit)
-gpgpu_max_cta                          0 # terminates gpu simulation early (0 = no limit)
-gpgpu_max_completed_cta                 2700 # terminates gpu simulation early (0 = no limit)
-gpgpu_runtime_stat                   500 # display runtime statistics such as dram utilization {<freq>:<flag>}
-liveness_message_freq                    1 # Minimum number of seconds between simulation liveness messages (0 = always print)
-gpgpu_compute_capability_major                    7 # Major compute capability version number
-gpgpu_compute_capability_minor                    0 # Minor compute capability version number
-gpgpu_flush_l1_cache                    1 # Flush L1 cache at the end of each kernel call
-gpgpu_flush_l2_cache                    0 # Flush L2 cache at the end of each kernel call
-gpgpu_deadlock_detect                    1 # Stop the simulation at deadlock (1=on (default), 0=off)
-gpgpu_ptx_instruction_classification                    0 # if enabled will classify ptx instruction types per kernel (Max 255 kernels now)
-gpgpu_ptx_sim_mode                     0 # Select between Performance (default) or Functional simulation (1)
-gpgpu_clock_domains 1132.0:1132.0:1132.0:850.0 # Clock Domain Frequencies in MhZ {<Core Clock>:<ICNT Clock>:<L2 Clock>:<DRAM Clock>}
-gpgpu_max_concurrent_kernel                    8 # maximum kernels that can run concurrently on GPU
-gpgpu_cflog_interval                    0 # Interval between each snapshot in control flow logger
-visualizer_enabled               48e293453df1fbca85f95b4ef3d81d0c  /home/pli11/Videos/parboil_benchmark/parboil/benchmarks/mri-gridding/build/nvm_ssort_default/mri-gridding
Extracting PTX file and ptxas options    1: mri-gridding.1.sm_70.ptx -arch=sm_70
Extracting PTX file and ptxas options    2: mri-gridding.2.sm_70.ptx -arch=sm_70
      0 # Turn on visualizer output (1=On, 0=Off)
-visualizer_outputfile                 NULL # Specifies the output log file for visualizer
-visualizer_zlevel                      6 # Compression level of the visualizer output log (0=no comp, 9=highest)
-gpgpu_stack_size_limit                 1024 # GPU thread stack size
-gpgpu_heap_size_limit              8388608 # GPU malloc heap size 
-gpgpu_runtime_sync_depth_limit                    2 # GPU device runtime synchronize depth
-gpgpu_runtime_pending_launch_count_limit                 2048 # GPU device runtime pending launch count
-trace_enabled                          0 # Turn on traces
-trace_components                    none # comma seperated list of traces to enable. Complete list found in trace_streams.tup. Default none
-trace_sampling_core                    0 # The core which is printed using CORE_DPRINTF. Default 0
-trace_sampling_memory_partition                   -1 # The memory partition which is printed using MEMPART_DPRINTF. Default -1 (i.e. all)
-enable_ptx_file_line_stats                    1 # Turn on PTX source line statistic profiling. (1 = On)
-ptx_line_stats_filename gpgpu_inst_stats.txt # Output file for PTX source line statistics.
-gpgpu_kernel_launch_latency                 5000 # Kernel launch latency in cycles. Default: 0
-gpgpu_cdp_enabled                      0 # Turn on CDP
-gpgpu_TB_launch_latency                    0 # thread block launch latency in cycles. Default: 0
DRAM Timing Options:
nbk                                    16 # number of banks
CCD                                     1 # column to column delay
RRD                                     3 # minimal delay between activation of rows in different banks
RCD                                    12 # row to column delay
RAS                                    28 # time needed to activate row
RP                                     12 # time needed to precharge (deactivate) row
RC                                     40 # row cycle time
CDLR                                    3 # switching from write to read (changes tWTR)
WR                                     10 # last data-in to row precharge
CL                                     12 # CAS latency
WL                                      2 # Write latency
nbkgrp                                  4 # number of bank groups
CCDL                                    2 # column to column delay between accesses to different bank groups
RTPL                                    3 # read to precharge delay between accesses to different bank groups
Total number of memory sub partition = 64
addr_dec_mask[CHIP]  = 0000000000001f00 	high:13 low:8
addr_dec_mask[BK]    = 00000000000e2000 	high:20 low:13
addr_dec_mask[ROW]   = 00000001fff00000 	high:33 low:20
addr_dec_mask[COL]   = 000000000001c0ff 	high:17 low:0
addr_dec_mask[BURST] = 000000000000001f 	high:5 low:0
sub_partition_id_mask = 0000000000002000
GPGPU-Sim uArch: clock freqs: 1132000000.000000:1132000000.000000:1132000000.000000:850000000.000000
GPGPU-Sim uArch: clock periods: 0.00000000088339222615:0.00000000088339222615:0.00000000088339222615:0.00000000117647058824
*** Initializing Memory Statistics ***
GPGPU-Sim uArch: performance model initialization complete.
self exe links to: /home/pli11/Videos/parboil_benchmark/parboil/benchmarks/mri-gridding/build/nvm_ssort_default/mri-gridding
self exe links to: /home/pli11/Videos/parboil_benchmark/parboil/benchmarks/mri-gridding/build/nvm_ssort_default/mri-gridding
10.1
GPGPU-Sim PTX: __cudaRegisterFatBinary, fat_cubin_handle = 1, filename=default
self exe links to: /home/pli11/Videos/parboil_benchmark/parboil/benchmarks/mri-gridding/build/nvm_ssort_default/mri-gridding
Running md5sum using "md5sum /home/pli11/Videos/parboil_benchmark/parboil/benchmarks/mri-gridding/build/nvm_ssort_default/mri-gridding "
self exe links to: /home/pli11/Videos/parboil_benchmark/parboil/benchmarks/mri-gridding/build/nvm_ssort_default/mri-gridding
Extracting specific PTX file named mri-gridding.1.sm_70.ptx 
Extracting specific PTX file named mri-gridding.2.sm_70.ptx 
EExtracting PTX file and ptxas options    3: mri-gridding.3.sm_70.ptx -arch=sm_70
Extracting PTX file and ptxas options    4: mri-gridding.4.sm_70.ptx -arch=sm_70
xtracting specific PTX file named mri-gridding.3.sm_70.ptx 
Extracting specific PTX file named mri-gridding.4.sm_70.ptx 
self exe links to: /home/pli11/Videos/parboil_benchmark/parboil/benchmarks/mri-gridding/build/nvm_ssort_default/mri-gridding
self exe links to: /home/pli11/Videos/parboil_benchmark/parboil/benchmarks/mri-gridding/build/nvm_ssort_default/mri-gridding
10.1
GPGPU-Sim PTX: __cudaRegisterFatBinary, fat_cubin_handle = 2, filename=default
GPGPU-Sim PTX: __cudaRegisterFunction _Z17gridding_GPU_nvmbP20ReconstructionSamplePjP6float2Pff : hostFun 0x0x404c94, fat_cubin_handle = 2
GPGPU-Sim PTX: Parsing mri-gridding.1.sm_70.ptx
GPGPU-Sim PTX: finished parsing EMBEDDED .ptx file mri-gridding.1.sm_70.ptx
GPGPU-Sim PTX: Parsing mri-gridding.2.sm_70.ptx
GPGPU-Sim PTX: allocating constant region for "cutoff2_c" from 0x100 to 0x104 (global memory space) 1
GPGPU-Sim PTX: allocating constant region for "cutoff_c" from 0x104 to 0x108 (global memory space) 2
GPGPU-Sim PTX: allocating constant region for "gridSize_c" from 0x180 to 0x18c (global memory space) 3
GPGPU-Sim PTX: allocating constant region for "size_xy_c" from 0x18c to 0x190 (global memory space) 4
GPGPU-Sim PTX: allocating constant region for "_1overCutoff2_c" from 0x190 to 0x194 (global memory space) 5
GPGPU-Sim PTX: allocating global region for "NVM_log" from 0x200 to 0x4000200 (global memory space)
GPGPU-Sim PTX: allocating global region for "NVM_flag" from 0x4000200 to 0x4400200 (global memory space)
GPGPU-Sim PTX: instruction assembly for function '_Z14binning_kerneljP20ReconstructionSamplePjS1_S1_jj'...   done.
GPGPU-Sim PTX: instruction assembly for function '_Z19binning_kernel_nvmbjP20ReconstructionSamplePjS1_S1_jj'...   done.
GPGPU-Sim PTX: instruction assembly for function '_Z19binning_kernel_nvmdjP20ReconstructionSamplePjS1_S1_jj'...   done.
GPGPU-Sim PTX: instruction assembly for function '_Z14reorder_kerneliPjP20ReconstructionSampleS1_'...   done.
GPGPU-Sim PTX: instruction assembly for function '_Z19reorder_kernel_nvmaiPjP20ReconstructionSampleS1_'...   done.
GPGPU-Sim PTX: instruction assembly for function '_Z19reorder_kernel_nvmbiPjP20ReconstructionSampleS1_'...   done.
GPGPU-Sim PTX: instruction assembly for function '_Z19reorder_kernel_nvmdiPjP20ReconstructionSampleS1_'...   done.
GPGPU-Sim PTX: instruction assembly for function '_Z19reorder_kernel_nvmgiPjP20ReconstructionSampleS1_'...   done.
GPGPU-Sim PTX: instruction assembly for function '_Z19reorder_kernel_nvmiiPjP20ReconstructionSampleS1_'...   done.
GPGPU-Sim PTX: allocating shared region for "_ZZ12gridding_GPUP20ReconstructionSamplePjP6float2PffE9sharedBin" from 0x0 to 0x600 (shared memory space)
GPGPU-Sim PTX: instruction assembly for function '_Z12gridding_GPUP20ReconstructionSamplePjP6float2Pff'...   done.
GPGPU-Sim PTX: allocating stack frame region for .local "__local_depot10" from 0x0 to 0x8
GPGPU-Sim PTX: allocating shared region for "_ZZ17gridding_GPU_nvmaP20ReconstructionSamplePjP6float2PffE9sharedBin" from 0x0 to 0x600 (shared memory space)
GPGPU-Sim PTX: instruction assembly for function '_Z17gridding_GPU_nvmaP20ReconstructionSamplePjP6float2Pff'...   done.
GPGPU-Sim PTX: allocating stack frame region for .local "__local_depot11" from 0x0 to 0x8
GPGPU-Sim PTX: allocating shared region for "_ZZ17gridding_GPU_nvmbP20ReconstructionSamplePjP6float2PffE9sharedBin" from 0x0 to 0x600 (shared memory space)
GPGPU-Sim PTX: instruction assembly for function '_Z17gridding_GPU_nvmbP20ReconstructionSamplePjP6float2Pff'...   done.
GPGPU-Sim PTX: finished parsing EMBEDDED .ptx file mri-gridding.2.sm_70.ptx
GPGPU-Sim PTX: Parsing mri-gridding.3.sm_70.ptx
GPGPU-Sim PTX: allocating shared region for "s_data" from 0x0 to 0x0 (shared memory space)
GPGPU-Sim PTX: allocating shared region for "_ZZ14scan_L1_kerneljPjS_E6s_data" from 0x0 to 0x1110 (shared memory space)
GPGPU-Sim PTX: instruction assembly for function '_Z14scan_L1_kerneljPjS_'...   done.
GPGPU-Sim PTX: instruction assembly for function '_Z18scan_inter1_kernelPjj'...   done.
GPGPU-Sim PTX: instruction assembly for function '_Z18scan_inter2_kernelPjj'...   done.
GPGPU-Sim PTX: allocating shared region for "_ZZ10uniformAddjPjS_E3uni" from 0x0 to 0x4 (shared memory space)
GPGPU-Sim PTX: instruction assembly for function '_Z10uniformAddjPjS_'...   done.
GPGPU-Sim PTX: finished parsing EMBEDDED .ptx file mri-gridding.3.sm_70.ptx
GPGPU-Sim PTX: Parsing mri-gridding.4.sm_70.ptx
GPGPU-Sim PTX: allocating global region for "NVM_log1" from 0x4400200 to 0x8400200 (global memory space)
GPGPU-Sim PTX: allocating global region for "NVM_log2" from 0x8400200 to 0xc400200 (global memory space)
GPGPU-Sim PTX: allocating global region for "NVM_log3" from 0xc400200 to 0x10400200 (global memory space)
GPGPU-Sim PTX: Warning NVM_flag was declared previous at mri-gridding.2.sm_70.ptx:20 skipping new declaration
GPGPU-Sim PTX: allocating shared region for "_ZZ9splitSortiiPjS_S_E5flags" from 0x0 to 0x1144 (shared memory space)
GPGPU-Sim PTX: allocating shared region for "_ZZ9splitSortiiPjS_S_E7histo_s" from 0x1180 to 0x11c0 (shared memory space)
GPGPU-Sim PTX: instruction assembly for function '_Z9splitSortiiPjS_S_'...   done.
GPGPU-Sim PTX: allocating shared region for "_ZZ14splitSort_nvmoiiPjS_S_E5flags" from 0x0 to 0x1144 (shared memory space)
GPGPU-Sim PTX: allocating shared region for "_ZZ14splitSort_nvmoiiPjS_S_E7histo_s" from 0x1180 to 0x11c0 (shared memory space)
GPGPU-Sim PTX: instruction assembly for function '_Z14splitSort_nvmoiiPjS_S_'...   done.
GPGPU-Sim PTX: allocating shared region for "_ZZ14splitSort_nvmqiiPjS_S_E5flags" from 0x0 to 0x1144 (shared memory space)
GPGPU-Sim PTX: allocating shared region for "_ZZ14splitSort_nvmqiiPjS_S_E7histo_s" from 0x1180 to 0x11c0 (shared memory space)
GPGPU-Sim PTX: instruction assembly for function '_Z14splitSort_nvmqiiPjS_S_'...   done.
GPGPU-Sim PTX: allocating shared region for "_ZZ14splitSort_nvmuiiPjS_S_E5flags" from 0x0 to 0x1144 (shared memory space)
GPGPU-Sim PTX: allocating shared region for "_ZZ14splitSort_nvmuiiPjS_S_E7histo_s" from 0x1180 to 0x11c0 (shared memory space)
GPGPU-Sim PTX: instruction assembly for function '_Z14splitSort_nvmuiiPjS_S_'...   done.
GPGPU-Sim PTX: allocating shared region for "_ZZ14splitSort_nvmwiiPjS_S_E5flags" from 0x0 to 0x1144 (shared memory space)
GPGPU-Sim PTX: allocating shared region for "_ZZ14splitSort_nvmwiiPjS_S_E7histo_s" from 0x1180 to 0x11c0 (shared memory space)
GPGPU-Sim PTX: instruction assembly for function '_Z14splitSort_nvmwiiPjS_S_'...   done.
GPGPU-Sim PTX: allocating shared region for "_ZZ14splitSort_nvm1iiPjS_S_E5flags" from 0x0 to 0x1144 (shared memory space)
GPGPU-Sim PTX: allocating shared region for "_ZZ14splitSort_nvm1iiPjS_S_E7histo_s" from 0x1180 to 0x11c0 (shared memory space)
GPGPU-Sim PTX: instruction assembly for function '_Z14splitSort_nvm1iiPjS_S_'...   done.
GPGPU-Sim PTX: allocating shared region for "_ZZ14splitSort_nvm2iiPjS_S_E5flags" from 0x0 to 0x1144 (shared memory space)
GPGPU-Sim PTX: allocating shared region for "_ZZ14splitSort_nvm2iiPjS_S_E7histo_s" from 0x1180 to 0x11c0 (shared memory space)
GPGPU-Sim PTX: instruction assembly for function '_Z14splitSort_nvm2iiPjS_S_'...   done.
GPGPU-Sim PTX: allocating shared region for "_ZZ14splitSort_nvmbiiPjS_S_E5flags" from 0x0 to 0x1144 (shared memory space)
GPGPU-Sim PTX: allocating shared region for "_ZZ14splitSort_nvmbiiPjS_S_E7histo_s" from 0x1180 to 0x11c0 (shared memory space)
GPGPU-Sim PTX: instruction assembly for function '_Z14splitSort_nvmbiiPjS_S_'...   done.
GPGPU-Sim PTX: allocating shared region for "_ZZ14splitSort_nvmdiiPjS_S_E5flags" from 0x0 to 0x1144 (shared memory space)
GPGPU-Sim PTX: allocating shared region for "_ZZ14splitSort_nvmdiiPjS_S_E7histo_s" from 0x1180 to 0x11c0 (shared memory space)
GPGPU-Sim PTX: instruction assembly for function '_Z14splitSort_nvmdiiPjS_S_'...   done.
GPGPU-Sim PTX: allocating shared region for "_ZZ19splitRearrange_nvmbiiPjS_S_S_S_E7histo_s" from 0x0 to 0x40 (shared memory space)
GPGPU-Sim PTX: allocating shared region for "_ZZ19splitRearrange_nvmbiiPjS_S_S_S_E7array_s" from 0x80 to 0x1080 (shared memory space)
GPGPU-Sim PTX: instruction assembly for function '_Z19splitRearrange_nvmbiiPjS_S_S_S_'...   done.
GPGPU-Sim PTX: allocating shared region for "_ZZ19splitRearrange_nvmdiiPjS_S_S_S_E7histo_s" from 0x0 to 0x40 (shared memory space)
GPGPU-Sim PTX: allocating shared region for "_ZZ19splitRearrange_nvmdiiPjS_S_S_S_E7array_s" from 0x80 to 0x1080 (shared memory space)
GPGPU-Sim PTX: instruction assembly for function '_Z19splitRearrange_nvmdiiPjS_S_S_S_'...   done.
GPGPU-Sim PTX: allocating shared region for "_ZZ19splitRearrange_nvmoiiPjS_S_S_S_E7histo_s" from 0x0 to 0x40 (shared memory space)
GPGPU-Sim PTX: allocating shared region for "_ZZ19splitRearrange_nvmoiiPjS_S_S_S_E7array_s" from 0x80 to 0x1080 (shared memory space)
GPGPU-Sim PTX: instruction assembly for function '_Z19splitRearrange_nvmoiiPjS_S_S_S_'...   done.
GPGPU-Sim PTX: allocating shared region for "_ZZ19splitRearrange_nvmqiiPjS_S_S_S_E7histo_s" from 0x0 to 0x40 (shared memory space)
GPGPU-Sim PTX: allocating shared region for "_ZZ19splitRearrange_nvmqiiPjS_S_S_S_E7array_s" from 0x80 to 0x1080 (shared memory space)
GPGPU-Sim PTX: instruction assembly for function '_Z19splitRearrange_nvmqiiPjS_S_S_S_'...   done.
GPGPU-Sim PTX: allocating shared region for "_ZZ19splitRearrange_nvmuiiPjS_S_S_S_E7histo_s" from 0x0 to 0x40 (shared memory space)
GPGPU-Sim PTX: allocating shared region for "_ZZ19splitRearrange_nvmuiiPjS_S_S_S_E7array_s" from 0x80 to 0x1080 (shared memory space)
GPGPU-Sim PTX: instruction assembly for function '_Z19splitRearrange_nvmuiiPjS_S_S_S_'...   done.
GPGPU-Sim PTX: allocating shared region for "_ZZ19splitRearrange_nvmwiiPjS_S_S_S_E7histo_s" from 0x0 to 0x40 (shared memory space)
GPGPU-Sim PTX: allocating shared region for "_ZZ19splitRearrange_nvmwiiPjS_S_S_S_E7array_s" from 0x80 to 0x1080 (shared memory space)
GPGPU-Sim PTX: instruction assembly for function '_Z19splitRearrange_nvmwiiPjS_S_S_S_'...   done.
GPGPU-Sim PTX: allocating shared region for "_ZZ19splitRearrange_nvm1iiPjS_S_S_S_E7histo_s" from 0x0 to 0x40 (shared memory space)
GPGPU-Sim PTX: allocating shared region for "_ZZ19splitRearrange_nvm1iiPjS_S_S_S_E7array_s" from 0x80 to 0x1080 (shared memory space)
GPGPU-Sim PTX: instruction assembly for function '_Z19splitRearrange_nvm1iiPjS_S_S_S_'...   done.
GPGPU-Sim PTX: allocating shared region for "_ZZ19splitRearrange_nvm2iiPjS_S_S_S_E7histo_s" from 0x0 to 0x40 (shared memory space)
GPGPU-Sim PTX: allocating shared region for "_ZZ19splitRearrange_nvm2iiPjS_S_S_S_E7array_s" from 0x80 to 0x1080 (shared memory space)
GPGPU-Sim PTX: instruction assembly for function '_Z19splitRearrange_nvm2iiPjS_S_S_S_'...   done.
GPGPU-Sim PTX: allocating shared region for "_ZZ14splitSort_nvmgiiPjS_S_E5flags" from 0x0 to 0x1144 (shared memory space)
GPGPU-Sim PTX: allocating shared region for "_ZZ14splitSort_nvmgiiPjS_S_E7histo_s" from 0x1180 to 0x11c0 (shared memory space)
GPGPU-Sim PTX: instruction assembly for function '_Z14splitSort_nvmgiiPjS_S_'...   done.
GPGPU-Sim PTX: allocating shared region for "_ZZ14splitSort_nvm3iiPjS_S_E5flags" from 0x0 to 0x1144 (shared memory space)
GPGPU-Sim PTX: allocating shared region for "_ZZ14splitSort_nvm3iiPjS_S_E7histo_s" from 0x1180 to 0x11c0 (shared memory space)
GPGPU-Sim PTX: instruction assembly for function '_Z14splitSort_nvm3iiPjS_S_'...   done.
GPGPU-Sim PTX: allocating shared region for "_ZZ14splitSort_nvm4iiPjS_S_E5flags" from 0x0 to 0x1144 (shared memory space)
GPGPU-Sim PTX: allocating shared region for "_ZZ14splitSort_nvm4iiPjS_S_E7histo_s" from 0x1180 to 0x11c0 (shared memory space)
GPGPU-Sim PTX: instruction assembly for function '_Z14splitSort_nvm4iiPjS_S_'...   done.
GPGPU-Sim PTX: allocating shared region for "_ZZ14splitSort_nvmiiiPjS_S_E5flags" from 0x0 to 0x1144 (shared memory space)
GPGPU-Sim PTX: allocating shared region for "_ZZ14splitSort_nvmiiiPjS_S_E7histo_s" from 0x1180 to 0x11c0 (shared memory space)
GPGPU-Sim PTX: instruction assembly for function '_Z14splitSort_nvmiiiPjS_S_'...   done.
GPGPU-Sim PTX: allocating shared region for "_ZZ14splitSort_nvm5iiPjS_S_E5flags" from 0x0 to 0x1144 (shared memory space)
GPGPU-Sim PTX: allocating shared region for "_ZZ14splitSort_nvm5iiPjS_S_E7histo_s" from 0x1180 to 0x11c0 (shared memory space)
GPGPU-Sim PTX: instruction assembly for function '_Z14splitSort_nvm5iiPjS_S_'...   done.
GPGPU-Sim PTX: allocating shared region for "_ZZ14splitSort_nvm6iiPjS_S_E5flags" from 0x0 to 0x1144 (shared memory space)
GPGPU-Sim PTX: allocating shared region for "_ZZ14splitSort_nvm6iiPjS_S_E7histo_s" from 0x1180 to 0x11c0 (shared memory space)
GPGPU-Sim PTX: instruction assembly for function '_Z14splitSort_nvm6iiPjS_S_'...   done.
GPGPU-Sim PTX: allocating shared region for "_ZZ19splitRearrange_nvmgiiPjS_S_S_S_E7histo_s" from 0x0 to 0x40 (shared memory space)
GPGPU-Sim PTX: allocating shared region for "_ZZ19splitRearrange_nvmgiiPjS_S_S_S_E7array_s" from 0x80 to 0x1080 (shared memory space)
GPGPU-Sim PTX: instruction assembly for function '_Z19splitRearrange_nvmgiiPjS_S_S_S_'...   done.
GPGPU-Sim PTX: allocating shared region for "_ZZ19splitRearrange_nvm3iiPjS_S_S_S_E7histo_s" from 0x0 to 0x40 (shared memory space)
GPGPU-Sim PTX: allocating shared region for "_ZZ19splitRearrange_nvm3iiPjS_S_S_S_E7array_s" from 0x80 to 0x1080 (shared memory space)
GPGPU-Sim PTX: instruction assembly for function '_Z19splitRearrange_nvm3iiPjS_S_S_S_'...   done.
GPGPU-Sim PTX: allocating shared region for "_ZZ19splitRearrange_nvm4iiPjS_S_S_S_E7histo_s" from 0x0 to 0x40 (shared memory space)
GPGPU-Sim PTX: allocating shared region for "_ZZ19splitRearrange_nvm4iiPjS_S_S_S_E7array_s" from 0x80 to 0x1080 (shared memory space)
GPGPU-Sim PTX: instruction assembly for function '_Z19splitRearrange_nvm4iiPjS_S_S_S_'...   done.
GPGPU-Sim PTX: allocating shared region for "_ZZ19splitRearrange_nvmiiiPjS_S_S_S_E7histo_s" from 0x0 to 0x40 (shared memory space)
GPGPU-Sim PTX: allocating shared region for "_ZZ19splitRearrange_nvmiiiPjS_S_S_S_E7array_s" from 0x80 to 0x1080 (shared memory space)
GPGPU-Sim PTX: instruction assembly for function '_Z19splitRearrange_nvmiiiPjS_S_S_S_'...   done.
GPGPU-Sim PTX: allocating shared region for "_ZZ19splitRearrange_nvm6iiPjS_S_S_S_E7histo_s" from 0x0 to 0x40 (shared memory space)
GPGPU-Sim PTX: allocating shared region for "_ZZ19splitRearrange_nvm6iiPjS_S_S_S_E7array_s" from 0x80 to 0x1080 (shared memory space)
GPGPU-Sim PTX: instruction assembly for function '_Z19splitRearrange_nvm6iiPjS_S_S_S_'...   done.
GPGPU-Sim PTX: allocating shared region for "_ZZ19splitRearrange_nvm5iiPjS_S_S_S_E7histo_s" from 0x0 to 0x40 (shared memory space)
GPGPU-Sim PTX: allocating shared region for "_ZZ19splitRearrange_nvm5iiPjS_S_S_S_E7array_s" from 0x80 to 0x1080 (shared memory space)
GPGPU-Sim PTX: instruction assembly for function '_Z19splitRearrange_nvm5iiPjS_S_S_S_'...   done.
GPGPU-Sim PTX: allocating shared region for "_ZZ14splitRearrangeiiPjS_S_S_S_E7histo_s" from 0x0 to 0x40 (shared memory space)
GPGPU-Sim PTX: allocating shared region for "_ZZ14splitRearrangeiiPjS_S_S_S_E7array_s" from 0x80 to 0x1080 (shared memory space)
GPGPU-Sim PTX: instruction assembly for function '_Z14splitRearrangeiiPjS_S_S_S_'...   done.
GPGPU-Sim PTX: finished parsing EMBEDDED .ptx file mri-gridding.4.sm_70.ptx
GPGPU-Sim PTX: loading globals with explicit initializers... 
GPGPU-Sim PTX: finished loading globals (0 bytes total).
GPGPU-Sim PTX: loading constants with explicit initializers...  done.
GPGPU-Sim PTX: Loading PTXInfo from mri-gridding.1.sm_70.ptx
GPGPU-Sim PTX: Loading PTXInfo from mri-gridding.2.sm_70.ptx
GPGPU-Sim PTX: Binary info : gmem=71303168, cmem=28
GPGPU-Sim PTX: Kernel '_Z17gridding_GPU_nvmbP20ReconstructionSamplePjP6float2Pff' : regs=40, lmem=0, smem=1536, cmem=388
GPGPU-Sim PTX: Kernel '_Z17gridding_GPU_nvmaP20ReconstructionSamplePjP6float2Pff' : regs=40, lmem=0, smem=1536, cmem=388
GPGPU-Sim PTX: Kernel '_Z12gridding_GPUP20ReconstructionSamplePjP6float2Pff' : regs=39, lmem=0, smem=1536, cmem=388
GPGPU-Sim PTX: Kernel '_Z19reorder_kernel_nvmiiPjP20ReconstructionSampleS1_' : regs=24, lmem=0, smem=0, cmem=384
GPGPU-Sim PTX: Kernel '_Z19reorder_kernel_nvmgiPjP20ReconstructionSampleS1_' : regs=24, lmem=0, smem=0, cmem=384
GPGPU-Sim PTX: Kernel '_Z19reorder_kernel_nvmdiPjP20ReconstructionSampleS1_' : regs=22, lmem=0, smem=0, cmem=384
GPGPU-Sim PTX: Kernel '_Z19reorder_kernel_nvmbiPjP20ReconstructionSampleS1_' : regs=22, lmem=0, smem=0, cmem=384
GPGPU-Sim PTX: Kernel '_Z19reorder_kernel_nvmaiPjP20ReconstructionSampleS1_' : regs=22, lmem=0, smem=0, cmem=384
GPGPU-Sim PTX: Kernel '_Z14reorder_kerneliPjP20ReconstructionSampleS1_' : regs=22, lmem=0, smem=0, cmem=384
GPGPU-Sim PTX: Kernel '_Z19binning_kernel_nvmdjP20ReconstructionSamplePjS1_S1_jj' : regs=16, lmem=0, smem=0, cmem=400
GPGPU-Sim PTX: Kernel '_Z19binning_kernel_nvmbjP20ReconstructionSamplePjS1_S1_jj' : regs=16, lmem=0, smem=0, cmem=400
GPGPU-Sim PTX: Kernel '_Z14binning_kerneljP20ReconstructionSamplePjS1_S1_jj' : regs=16, lmem=0, smem=0, cmem=400
GPGPU-Sim PTX: Loading PTXInfo from mri-gridding.3.sm_70.ptx
GPGPU-Sim PTX: Kernel '_Z10uniformAddjPjS_' : regs=8, lmem=0, smem=16, cmem=376
GPGPU-Sim PTX: Kernel '_Z18scan_inter2_kernelPjj' : regs=19, lmem=0, smem=0, cmem=364
GPGPU-Sim PTX: Kernel '_Z18scan_inter1_kernelPjj' : regs=20, lmem=0, smem=0, cmem=364
GPGPU-Sim PTX: Kernel '_Z14scan_L1_kerneljPjS_' : regs=22, lmem=0, smem=4368, cmem=376
GPGPU-Sim PTX: Loading PTXInfo from mri-gridding.4.sm_70.ptx
GPGPU-Sim PTX: Kernel '_Z14splitRearrangeiiPjS_S_S_S_' : regs=28, lmem=0, smem=4160, cmem=400
GPGPU-Sim PTX: Kernel '_Z19splitRearrange_nvm5iiPjS_S_S_S_' : regs=28, lmem=0, smem=4160, cmem=400
GPGPU-Sim PTX: Kernel '_Z19splitRearrange_nvm6iiPjS_S_S_S_' : regs=28, lmem=0, smem=4160, cmem=400
GPGPU-Sim PTX: Kernel '_Z19splitRearrange_nvmiiiPjS_S_S_S_' : regs=30, lmem=0, smem=4160, cmem=400
GPGPU-Sim PTX: Kernel '_Z19splitRearrange_nvm4iiPjS_S_S_S_' : regs=32, lmem=0, smem=4160, cmem=400
GPGPU-Sim PTX: Kernel '_Z19splitRearrange_nvm3iiPjS_S_S_S_' : regs=32, lmem=0, smem=4160, cmem=400
GPGPU-Sim PTX: Kernel '_Z19splitRearrange_nvmgiiPjS_S_S_S_' : regs=32, lmem=0, smem=4160, cmem=400
GPGPU-Sim PTX: Kernel '_Z14splitSort_nvm6iiPjS_S_' : regs=48, lmem=0, smem=4484, cmem=384
GPGPU-Sim PTX: Kernel '_Z14splitSort_nvm5iiPjS_S_' : regs=48, lmem=0, smem=4484, cmem=384
GPGPU-Sim PTX: Kernel '_Z14splitSort_nvmiiiPjS_S_' : regs=48, lmem=0, smem=4484, cmem=384
GPGPU-Sim PTX: Kernel '_Z14splitSort_nvm4iiPjS_S_' : regs=48, lmem=0, smem=4484, cmem=384
GPGPU-Sim PTX: Kernel '_Z14splitSort_nvm3iiPjS_S_' : regs=48, lmem=0, smem=4484, cmem=384
GPGPU-Sim PTX: Kernel '_Z14splitSort_nvmgiiPjS_S_' : regs=43, lmem=0, smem=4484, cmem=384
GPGPU-Sim PTX: Kernel '_Z19splitRearrange_nvm2iiPjS_S_S_S_' : regs=30, lmem=0, smem=4160, cmem=400
GPGPU-Sim PTX: Kernel '_Z19splitRearrange_nvm1iiPjS_S_S_S_' : regs=30, lmem=0, smem=4160, cmem=400
GPGPU-Sim PTX: Kernel '_Z19splitRearrange_nvmwiiPjS_S_S_S_' : regs=28, lmem=0, smem=4160, cmem=400
GPGPU-Sim PTX: Kernel '_Z19splitRearrange_nvmuiiPjS_S_S_S_' : regs=26, lmem=0, smem=4160, cmem=400
GPGPU-Sim PTX: Kernel '_Z19splitRearrange_nvmqiiPjS_S_S_S_' : regs=28, lmem=0, smem=4160, cmem=400
GPGPU-Sim PTX: Kernel '_Z19splitRearrange_nvmoiiPjS_S_S_S_' : regs=26, lmem=0, smem=4160, cmem=400
GPGPU-Sim PTX: Kernel '_Z19splitRearrange_nvmdiiPjS_S_S_S_' : regs=28, lmem=0, smem=4160, cmem=400
GPGPU-Sim PTX: Kernel '_Z19splitRearrange_nvmbiiPjS_S_S_S_' : regs=26, lmem=0, smem=4160, cmem=400
GPGPU-Sim PTX: Kernel '_Z14splitSort_nvmdiiPjS_S_' : regs=43, lmem=0, smem=4484, cmem=384
GPGPU-Sim PTX: Kernel '_Z14splitSort_nvmbiiPjS_S_' : regs=43, lmem=0, smem=4484, cmem=384
GPGPU-Sim PTX: Kernel '_Z14splitSort_nvm2iiPjS_S_' : regs=43, lmem=0, smem=4484, cmem=384
GPGPU-Sim PTX: Kernel '_Z14splitSort_nvm1iiPjS_S_' : regs=43, lmem=0, smem=4484, cmem=384
GPGPU-Sim PTX: Kernel '_Z14splitSort_nvmwiiPjS_S_' : regs=43, lmem=0, smem=4484, cmem=384
GPGPU-Sim PTX: Kernel '_Z14splitSort_nvmuiiPjS_S_' : regs=43, lmem=0, smem=4484, cmem=384
GPGPU-Sim PTX: Kernel '_Z14splitSort_nvmqiiPjS_S_' : regs=43, lmem=0, smem=4484, cmem=384
GPGPU-Sim PTX: Kernel '_Z14splitSort_nvmoiiPjS_S_' : regs=43, lmem=0, smem=4484, cmem=384
GPGPU-Sim PTX: Kernel '_Z9splitSortiiPjS_S_' : regs=43, lmem=0, smem=4484, cmem=384
GPGPU-Sim PTX: __cudaRegisterFunction _Z17gridding_GPU_nvmaP20ReconstructionSamplePjP6float2Pff : hostFun 0x0x404aee, fat_cubin_handle = 2
GPGPU-Sim PTX: __cudaRegisterFunction _Z12gridding_GPUP20ReconstructionSamplePjP6float2Pff : hostFun 0x0x404948, fat_cubin_handle = 2
GPGPU-Sim PTX: __cudaRegisterFunction _Z19reorder_kernel_nvmiiPjP20ReconstructionSampleS1_ : hostFun 0x0x4047b2, fat_cubin_handle = 2
GPGPU-Sim PTX: __cudaRegisterFunction _Z19reorder_kernel_nvmgiPjP20ReconstructionSampleS1_ : hostFun 0x0x40463d, fat_cubin_handle = 2
GPGPU-Sim PTX: __cudaRegisterFunction _Z19reorder_kernel_nvmdiPjP20ReconstructionSampleS1_ : hostFun 0x0x4044c8, fat_cubin_handle = 2
GPGPU-Sim PTX: __cudaRegisterFunction _Z19reorder_kernel_nvmbiPjP20ReconstructionSampleS1_ : hostFun 0x0x404353, fat_cubin_handle = 2
GPGPU-Sim PTX: __cudaRegisterFunction _Z19reorder_kernel_nvmaiPjP20ReconstructionSampleS1_ : hostFun 0x0x4041de, fat_cubin_handle = 2
GPGPU-Sim PTX: __cudaRegisterFunction _Z14reorder_kerneliPjP20ReconstructionSampleS1_ : hostFun 0x0x404069, fat_cubin_handle = 2
GPGPU-Sim PTX: __cudaRegisterFunction _Z19binning_kernel_nvmdjP20ReconstructionSamplePjS1_S1_jj : hostFun 0x0x403ede, fat_cubin_handle = 2
GPGPU-Sim PTX: __cudaRegisterFunction _Z19binning_kernel_nvmbjP20ReconstructionSamplePjS1_S1_jj : hostFun 0x0x403ce5, fat_cubin_handle = 2
GPGPU-Sim PTX: __cudaRegisterFunction _Z14binning_kerneljP20ReconstructionSamplePjS1_S1_jj : hostFun 0x0x403aec, fat_cubin_handle = 2
GPGPU-Sim PTX: __cudaRegisterVar: hostVar = 0x61c470; deviceAddress = cutoff2_c; deviceName = cutoff2_c
GPGPU-Sim PTX: __cudaRegisterVar: Registering const memory space of 4 bytes
GPGPU-Sim PTX registering constant cutoff2_c (4 bytes) to name mapping
GPGPU-Sim PTX: __cudaRegisterVar: hostVar = 0x61c474; deviceAddress = cutoff_c; deviceName = cutoff_c
GPGPU-Sim PTX: __cudaRegisterVar: Registering const memory space of 4 bytes
GPGPU-Sim PTX registering constant cutoff_c (4 bytes) to name mapping
GPGPU-Sim PTX: __cudaRegisterVar: hostVar = 0x61c478; deviceAddress = gridSize_c; deviceName = gridSize_c
GPGPU-Sim PTX: __cudaRegisterVar: Registering const memory space of 12 bytes
GPGPU-Sim PTX registering constant gridSize_c (12 bytes) to name mapping
GPGPU-Sim PTX: __cudaRegisterVar: hostVar = 0x61c484; deviceAddress = size_xy_c; deviceName = size_xy_c
GPGPU-Sim PTX: __cudaRegisterVar: Registering const memory space of 4 bytes
GPGPU-Sim PTX registering constant size_xy_c (4 bytes) to name mapping
GPGPU-Sim PTX: __cudaRegisterVar: hostVar = 0x61c488; deviceAddress = _1overCutoff2_c; deviceName = _1overCutoff2_c
GPGPU-Sim PTX: __cudaRegisterVar: Registering const memory space of 4 bytes
GPGPU-Sim PTX registering constant _1overCutoff2_c (4 bytes) to name mapping
GPGPU-Sim PTX: __cudaRegisterVar: hostVar = 0x61c4a0; deviceAddress = NVM_log; deviceName = NVM_log
GPGPU-Sim PTX: __cudaRegisterVar: Registering const memory space of 67108864 bytes
GPGPU-Sim PTX registering global NVM_log hostVar to name mapping
GPGPU-Sim PTX: __cudaRegisterVar: hostVar = 0x461c4a0; deviceAddress = NVM_flag; deviceName = NVM_flag
GPGPU-Sim PTX: __cudaRegisterVar: Registering const memory space of 4194304 bytes
GPGPU-Sim PTX registering global NVM_flag hostVar to name mapping
self exe links to: /home/pli11/Videos/parboil_benchmark/parboil/benchmarks/mri-gridding/build/nvm_ssort_default/mri-gridding
self exe links to: /home/pli11/Videos/parboil_benchmark/parboil/benchmarks/mri-gridding/build/nvm_ssort_default/mri-gridding
10.1
GPGPU-Sim PTX: __cudaRegisterFatBinary, fat_cubin_handle = 3, filename=default
GPGPU-Sim PTX: __cudaRegisterFunction _Z10uniformAddjPjS_ : hostFun 0x0x405ec1, fat_cubin_handle = 3
GPGPU-Sim PTX: __cudaRegisterFunction _Z18scan_inter2_kernelPjj : hostFun 0x0x405d6f, fat_cubin_handle = 3
GPGPU-Sim PTX: __cudaRegisterFunction _Z18scan_inter1_kernelPjj : hostFun 0x0x405c33, fat_cubin_handle = 3
GPGPU-Sim PTX: __cudaRegisterFunction _Z14scan_L1_kerneljPjS_ : hostFun 0x0x405aef, fat_cubin_handle = 3
self exe links to: /home/pli11/Videos/parboil_benchmark/parboil/benchmarks/mri-gridding/build/nvm_ssort_default/mri-gridding
self exe links to: /home/pli11/Videos/parboil_benchmark/parboil/benchmarks/mri-gridding/build/nvm_ssort_default/mri-gridding
10.1
GPGPU-Sim PTX: __cudaRegisterFatBinary, fat_cubin_handle = 4, filename=default
GPGPU-Sim PTX: __cudaRegisterFunction _Z14splitRearrangeiiPjS_S_S_S_ : hostFun 0x0x40a3f5, fat_cubin_handle = 4
GPGPU-Sim PTX: __cudaRegisterFunction _Z19splitRearrange_nvm5iiPjS_S_S_S_ : hostFun 0x0x40a1fd, fat_cubin_handle = 4
GPGPU-Sim PTX: __cudaRegisterFunction _Z19splitRearrange_nvm6iiPjS_S_S_S_ : hostFun 0x0x40a005, fat_cubin_handle = 4
GPGPU-Sim PTX: __cudaRegisterFunction _Z19splitRearrange_nvmiiiPjS_S_S_S_ : hostFun 0x0x409e0d, fat_cubin_handle = 4
GPGPU-Sim PTX: __cudaRegisterFunction _Z19splitRearrange_nvm4iiPjS_S_S_S_ : hostFun 0x0x409c15, fat_cubin_handle = 4
GPGPU-Sim PTX: __cudaRegisterFunction _Z19splitRearrange_nvm3iiPjS_S_S_S_ : hostFun 0x0x409a1d, fat_cubin_handle = 4
GPGPU-Sim PTX: __cudaRegisterFunction _Z19splitRearrange_nvmgiiPjS_S_S_S_ : hostFun 0x0x409825, fat_cubin_handle = 4
GPGPU-Sim PTX: __cudaRegisterFunction _Z14splitSort_nvm6iiPjS_S_ : hostFun 0x0x40963a, fat_cubin_handle = 4
GPGPU-Sim PTX: __cudaRegisterFunction _Z14splitSort_nvm5iiPjS_S_ : hostFun 0x0x4094a4, fat_cubin_handle = 4
GPGPU-Sim PTX: __cudaRegisterFunction _Z14splitSort_nvmiiiPjS_S_ : hostFun 0x0x40930e, fat_cubin_handle = 4
GPGPU-Sim PTX: __cudaRegisterFunction _Z14splitSort_nvm4iiPjS_S_ : hostFun 0x0x409178, fat_cubin_handle = 4
GPGPU-Sim PTX: __cudaRegisterFunction _Z14splitSort_nvm3iiPjS_S_ : hostFun 0x0x408fe2, fat_cubin_handle = 4
GPGPU-Sim PTX: __cudaRegisterFunction _Z14splitSort_nvmgiiPjS_S_ : hostFun 0x0x408e4c, fat_cubin_handle = 4
GPGPU-Sim PTX: __cudaRegisterFunction _Z19splitRearrange_nvm2iiPjS_S_S_S_ : hostFun 0x0x408ca9, fat_cubin_handle = 4
GPGPU-Sim PTX: __cudaRegisterFunction _Z19splitRearrange_nvm1iiPjS_S_S_S_ : hostFun 0x0x408ab1, fat_cubin_handle = 4
GPGPU-Sim PTX: __cudaRegisterFunction _Z19splitRearrange_nvmwiiPjS_S_S_S_ : hostFun 0x0x4088b9, fat_cubin_handle = 4
GPGPU-Sim PTX: __cudaRegisterFunction _Z19splitRearrange_nvmuiiPjS_S_S_S_ : hostFun 0x0x4086c1, fat_cubin_handle = 4
GPGPU-Sim PTX: __cudaRegisterFunction _Z19splitRearrange_nvmqiiPjS_S_S_S_ : hostFun 0x0x4084c9, fat_cubin_handle = 4
GPGPU-Sim PTX: __cudaRegisterFunction _Z19splitRearrange_nvmoiiPjS_S_S_S_ : hostFun 0x0x4082d1, fat_cubin_handle = 4
GPGPU-Sim PTX: __cudaRegisterFunction _Z19splitRearrange_nvmdiiPjS_S_S_S_ : hostFun 0x0x4080d9, fat_cubin_handle = 4
GPGPU-Sim PTX: __cudaRegisterFunction _Z19splitRearrange_nvmbiiPjS_S_S_S_ : hostFun 0x0x407ee1, fat_cubin_handle = 4
GPGPU-Sim PTX: __cudaRegisterFunction _Z14splitSort_nvmdiiPjS_S_ : hostFun 0x0x407cf6, fat_cubin_handle = 4
GPGPU-Sim PTX: __cudaRegisterFunction _Z14splitSort_nvmbiiPjS_S_ : hostFun 0x0x407b60, fat_cubin_handle = 4
GPGPU-Sim PTX: __cudaRegisterFunction _Z14splitSort_nvm2iiPjS_S_ : hostFun 0x0x4079ca, fat_cubin_handle = 4
GPGPU-Sim PTX: __cudaRegisterFunction _Z14splitSort_nvm1iiPjS_S_ : hostFun 0x0x407834, fat_cubin_handle = 4
GPGPU-Sim PTX: __cudaRegisterFunction _Z14splitSort_nvmwiiPjS_S_ : hostFun 0x0x40769e, fat_cubin_handle = 4
GPGPU-Sim PTX: __cudaRegisterFunction _Z14splitSort_nvmuiiPjS_S_ : hostFun 0x0x407508, fat_cubin_handle = 4
GPGPU-Sim PTX: __cudaRegisterFunction _Z14splitSort_nvmqiiPjS_S_ : hostFun 0x0x407372, fat_cubin_handle = 4
GPGPU-Sim PTX: __cudaRegisterFunction _Z14splitSort_nvmoiiPjS_S_ : hostFun 0x0x4071dc, fat_cubin_handle = 4
GPGPU-Sim PTX: __cudaRegisterFunction _Z9splitSortiiPjS_S_ : hostFun 0x0x407046, fat_cubin_handle = 4
GPGPU-Sim PTX: __cudaRegisterVar: hostVar = 0x4a1c580; deviceAddress = NVM_log1; deviceName = NVM_log1
GPGPU-Sim PTX: __cudaRegisterVar: Registering const memory space of 67108864 bytes
GPGPU-Sim PTX registering global NVM_log1 hostVar to name mapping
GPGPU-Sim PTX: __cudaRegisterVar: hostVar = 0x8a1c580; deviceAddress = NVM_log2; deviceName = NVM_log2
GPGPU-Sim PTX: __cudaRegisterVar: Registering const memory space of 67108864 bytes
GPGPU-Sim PTX registering global NVM_log2 hostVar to name mapping
GPGPU-Sim PTX: __cudaRegisterVar: hostVar = 0xca1c580; deviceAddress = NVM_log3; deviceName = NVM_log3
GPGPU-Sim PTX: __cudaRegisterVar: Registering const memory space of 67108864 bytes
GPGPU-Sim PTX registering global NVM_log3 hostVar to name mapping
GPGPU-Sim PTX: __cudaRegisterVar: hostVar = 0x10a1c580; deviceAddress = NVM_flag; deviceName = NVM_flag
GPGPU-Sim PTX: __cudaRegisterVar: Registering const memory space of 4194304 bytes
GPGPU-Sim PTX registering global NVM_flag hostVar to name mapping

Reading parameters
  Total amount of GPU memory: 2147483648 bytes
  Number of samples = 2655910
  Grid Size = 256x256x256
  Input Matrix Size = 60x60x60
  Recon Matrix Size = 60x60x60
  Kernel Width = 5.000000
  KMax = 150.00 150.00 150.00
  Oversampling = 5.000000
  GPU Binsize = 32
  Use LUT = Yes
Reading input data from files
Generating Look-Up Table
Running gold version
Running CUDA version
GPGPU-Sim PTX: cudaMemcpyToSymbol: symbol = 0x61c470
GPGPU-Sim PTX: starting gpgpu_ptx_sim_memcpy_symbol with hostVar 0x0x61c470
GPGPU-Sim PTX: gpgpu_ptx_sim_memcpy_symbol: Found PTX symbol w/ hostVar=0x61c470
GPGPU-Sim PTX: gpgpu_ptx_sim_memcpy_symbol: copying const memory 4 bytes  to  symbol cutoff2_c+0 @0x100 ...
GPGPU-Sim PTX: cudaMemcpyToSymbol: symbol = 0x61c474
GPGPU-Sim PTX: starting gpgpu_ptx_sim_memcpy_symbol with hostVar 0x0x61c474
GPGPU-Sim PTX: gpgpu_ptx_sim_memcpy_symbol: Found PTX symbol w/ hostVar=0x61c474
GPGPU-Sim PTX: gpgpu_ptx_sim_memcpy_symbol: copying const memory 4 bytes  to  symbol cutoff_c+0 @0x104 ...
GPGPU-Sim PTX: cudaMemcpyToSymbol: symbol = 0x61c478
GPGPU-Sim PTX: starting gpgpu_ptx_sim_memcpy_symbol with hostVar 0x0x61c478
GPGPU-Sim PTX: gpgpu_ptx_sim_memcpy_symbol: Found PTX symbol w/ hostVar=0x61c478
GPGPU-Sim PTX: gpgpu_ptx_sim_memcpy_symbol: copying const memory 12 bytes  to  symbol gridSize_c+0 @0x180 ...
GPGPU-Sim PTX: cudaMemcpyToSymbol: symbol = 0x61c484
GPGPU-Sim PTX: starting gpgpu_ptx_sim_memcpy_symbol with hostVar 0x0x61c484
GPGPU-Sim PTX: gpgpu_ptx_sim_memcpy_symbol: Found PTX symbol w/ hostVar=0x61c484
GPGPU-Sim PTX: gpgpu_ptx_sim_memcpy_symbol: copying const memory 4 bytes  to  symbol size_xy_c+0 @0x18c ...
GPGPU-Sim PTX: cudaMemcpyToSymbol: symbol = 0x61c488
GPGPU-Sim PTX: starting gpgpu_ptx_sim_memcpy_symbol with hostVar 0x0x61c488
GPGPU-Sim PTX: gpgpu_ptx_sim_memcpy_symbol: Found PTX symbol w/ hostVar=0x61c488
GPGPU-Sim PTX: gpgpu_ptx_sim_memcpy_symbol: copying const memory 4 bytes  to  symbol _1overCutoff2_c+0 @0x190 ...
event update
GPGPU-Sim: synchronize waiting for inactive GPU simulation
GPGPU-Sim API: Stream Manager State
GPGPU-Sim: detected inactive GPU simulation thread
GPGPU-Sim: synchronize waiting for inactive GPU simulation
GPGPU-Sim API: Stream Manager State
GPGPU-Sim: detected inactive GPU simulation thread
GPGPU-Sim: synchronize waiting for inactive GPU simulation
GPGPU-Sim API: Stream Manager State
GPGPU-Sim: detected inactive GPU simulation thread
GPGPU-Sim PTX: Setting up arguments for 4 bytes starting at 0x7ffc59d0817c..
GPGPU-Sim PTX: Setting up arguments for 4 bytes starting at 0x7ffc59d08178..
GPGPU-Sim PTX: Setting up arguments for 8 bytes starting at 0x7ffc59d08170..
GPGPU-Sim PTX: Setting up arguments for 8 bytes starting at 0x7ffc59d08168..
GPGPU-Sim PTX: Setting up arguments for 8 bytes starting at 0x7ffc59d08160..

GPGPU-Sim PTX: cudaLaunch for 0x0x409178 (mode=performance simulation) on stream 0
GPGPU-Sim PTX: finding reconvergence points for '_Z14splitSort_nvm4iiPjS_S_'...
GPGPU-Sim PTX: Finding dominators for '_Z14splitSort_nvm4iiPjS_S_'...
GPGPU-Sim PTX: Finding immediate dominators for '_Z14splitSort_nvm4iiPjS_S_'...
GPGPU-Sim PTX: Finding postdominators for '_Z14splitSort_nvm4iiPjS_S_'...
GPGPU-Sim PTX: Finding immediate postdominators for '_Z14splitSort_nvm4iiPjS_S_'...
GPGPU-Sim PTX: pre-decoding instructions for '_Z14splitSort_nvm4iiPjS_S_'...
GPGPU-Sim PTX: reconvergence points for _Z14splitSort_nvm4iiPjS_S_...
GPGPU-Sim PTX:  1 (potential) branch divergence @  PC=0xef50 (mri-gridding.4.sm_70.ptx:6631) @%p2 bra BB19_2;
GPGPU-Sim PTX:    immediate post dominator      @  PC=0xef80 (mri-gridding.4.sm_70.ptx:6640) shl.b32 %r86, %r3, 2;
GPGPU-Sim PTX:  2 (potential) branch divergence @  PC=0xefa0 (mri-gridding.4.sm_70.ptx:6644) @%p3 bra BB19_4;
GPGPU-Sim PTX:    immediate post dominator      @  PC=0xefb8 (mri-gridding.4.sm_70.ptx:6650) bar.sync 0;
GPGPU-Sim PTX:  3 (potential) branch divergence @  PC=0xf450 (mri-gridding.4.sm_70.ptx:6799) @%p4 bra BB19_9;
GPGPU-Sim PTX:    immediate post dominator      @  PC=0xf540 (mri-gridding.4.sm_70.ptx:6836) setp.ne.s32%p7, %r3, 0;
GPGPU-Sim PTX:  4 (potential) branch divergence @  PC=0xf468 (mri-gridding.4.sm_70.ptx:6804) @%p5 bra BB19_8;
GPGPU-Sim PTX:    immediate post dominator      @  PC=0xf520 (mri-gridding.4.sm_70.ptx:6830) shl.b32 %r361, %r361, 1;
GPGPU-Sim PTX:  5 (potential) branch divergence @  PC=0xf538 (mri-gridding.4.sm_70.ptx:6833) @%p6 bra BB19_6;
GPGPU-Sim PTX:    immediate post dominator      @  PC=0xf540 (mri-gridding.4.sm_70.ptx:6836) setp.ne.s32%p7, %r3, 0;
GPGPU-Sim PTX:  6 (potential) branch divergence @  PC=0xf548 (mri-gridding.4.sm_70.ptx:6837) @%p7 bra BB19_11;
GPGPU-Sim PTX:    immediate post dominator      @  PC=0xf580 (mri-gridding.4.sm_70.ptx:6847) mov.u32 %r362, %r90;
GPGPU-Sim PTX:  7 (potential) branch divergence @  PC=0xf588 (mri-gridding.4.sm_70.ptx:6848) @%p4 bra BB19_15;
GPGPU-Sim PTX:    immediate post dominator      @  PC=0xf688 (mri-gridding.4.sm_70.ptx:6887) bar.sync 0;
GPGPU-Sim PTX:  8 (potential) branch divergence @  PC=0xf5a8 (mri-gridding.4.sm_70.ptx:6854) @%p9 bra BB19_14;
GPGPU-Sim PTX:    immediate post dominator      @  PC=0xf670 (mri-gridding.4.sm_70.ptx:6882) shl.b32 %r362, %r362, 1;
GPGPU-Sim PTX:  9 (potential) branch divergence @  PC=0xf680 (mri-gridding.4.sm_70.ptx:6884) @%p10 bra BB19_12;
GPGPU-Sim PTX:    immediate post dominator      @  PC=0xf688 (mri-gridding.4.sm_70.ptx:6887) bar.sync 0;
GPGPU-Sim PTX: 10 (potential) branch divergence @  PC=0xf808 (mri-gridding.4.sm_70.ptx:6935) @%p15 bra BB19_5;
GPGPU-Sim PTX:    immediate post dominator      @  PC=0xf810 (mri-gridding.4.sm_70.ptx:6937) @%p2 bra BB19_18;
GPGPU-Sim PTX: 11 (potential) branch divergence @  PC=0xf810 (mri-gridding.4.sm_70.ptx:6937) @%p2 bra BB19_18;
GPGPU-Sim PTX:    immediate post dominator      @  PC=0xf9b8 (mri-gridding.4.sm_70.ptx:7025) @%p3 bra BB19_20;
GPGPU-Sim PTX: 12 (potential) branch divergence @  PC=0xf9b8 (mri-gridding.4.sm_70.ptx:7025) @%p3 bra BB19_20;
GPGPU-Sim PTX:    immediate post dominator      @  PC=0xfa18 (mri-gridding.4.sm_70.ptx:7045) membar.gl;
GPGPU-Sim PTX: 13 (potential) branch divergence @  PC=0xfa88 (mri-gridding.4.sm_70.ptx:7064) @%p18 bra BB19_22;
GPGPU-Sim PTX:    immediate post dominator      @  PC=0xfb18 (mri-gridding.4.sm_70.ptx:7095) @%p2 bra BB19_24;
GPGPU-Sim PTX: 14 (potential) branch divergence @  PC=0xfb18 (mri-gridding.4.sm_70.ptx:7095) @%p2 bra BB19_24;
GPGPU-Sim PTX:    immediate post dominator      @  PC=0xfbe0 (mri-gridding.4.sm_70.ptx:7123) mov.u32 %r69, %nctaid.x;
GPGPU-Sim PTX: 15 (potential) branch divergence @  PC=0xfbf0 (mri-gridding.4.sm_70.ptx:7125) @%p3 bra BB19_26;
GPGPU-Sim PTX:    immediate post dominator      @  PC=0xfc18 (mri-gridding.4.sm_70.ptx:7133) setp.eq.s32%p1, %r67, %r68;
GPGPU-Sim PTX: 16 (potential) branch divergence @  PC=0xfd20 (mri-gridding.4.sm_70.ptx:7190) @!%p1 bra BB19_28;
GPGPU-Sim PTX:    immediate post dominator      @  PC=0xfda8 (mri-gridding.4.sm_70.ptx:7221) ret;
GPGPU-Sim PTX: 17 (potential) branch divergence @  PC=0xfd28 (mri-gridding.4.sm_70.ptx:7191) bra.uni BB19_27;
GPGPU-Sim PTX:    immediate post dominator      @  PC=0xfd30 (mri-gridding.4.sm_70.ptx:7194) mov.u32 %r330, %ctaid.y;
GPGPU-Sim PTX: ... end of reconvergence points for _Z14splitSort_nvm4iiPjS_S_
GPGPU-Sim PTX: ... done pre-decoding instructions for '_Z14splitSort_nvm4iiPjS_S_'.
GPGPU-Sim PTX: pushing kernel '_Z14splitSort_nvm4iiPjS_S_' to stream 0, gridDim= (2594,1,1) blockDim = (256,1,1) 
GPGPU-Sim uArch: Shader 0 bind to kernel 1 '_Z14splitSort_nvm4iiPjS_S_'
GPGPU-Sim uArch: CTA/core = 5, limited by: regs
GPGPU-Sim: Reconfigure L1 cache to 96KB
GPGPU-Sim uArch: Shader 1 bind to kernel 1 '_Z14splitSort_nvm4iiPjS_S_'
GPGPU-Sim uArch: Shader 2 bind to kernel 1 '_Z14splitSort_nvm4iiPjS_S_'
GPGPU-Sim uArch: Shader 3 bind to kernel 1 '_Z14splitSort_nvm4iiPjS_S_'
GPGPU-Sim uArch: Shader 4 bind to kernel 1 '_Z14splitSort_nvm4iiPjS_S_'
GPGPU-Sim uArch: Shader 5 bind to kernel 1 '_Z14splitSort_nvm4iiPjS_S_'
GPGPU-Sim uArch: Shader 6 bind to kernel 1 '_Z14splitSort_nvm4iiPjS_S_'
GPGPU-Sim uArch: Shader 7 bind to kernel 1 '_Z14splitSort_nvm4iiPjS_S_'
GPGPU-Sim uArch: Shader 8 bind to kernel 1 '_Z14splitSort_nvm4iiPjS_S_'
GPGPU-Sim uArch: Shader 9 bind to kernel 1 '_Z14splitSort_nvm4iiPjS_S_'
GPGPU-Sim uArch: Shader 10 bind to kernel 1 '_Z14splitSort_nvm4iiPjS_S_'
GPGPU-Sim uArch: Shader 11 bind to kernel 1 '_Z14splitSort_nvm4iiPjS_S_'
GPGPU-Sim uArch: Shader 12 bind to kernel 1 '_Z14splitSort_nvm4iiPjS_S_'
GPGPU-Sim uArch: Shader 13 bind to kernel 1 '_Z14splitSort_nvm4iiPjS_S_'
GPGPU-Sim uArch: Shader 14 bind to kernel 1 '_Z14splitSort_nvm4iiPjS_S_'
GPGPU-Sim uArch: Shader 15 bind to kernel 1 '_Z14splitSort_nvm4iiPjS_S_'
GPGPU-Sim uArch: Shader 16 bind to kernel 1 '_Z14splitSort_nvm4iiPjS_S_'
GPGPU-Sim uArch: Shader 17 bind to kernel 1 '_Z14splitSort_nvm4iiPjS_S_'
GPGPU-Sim uArch: Shader 18 bind to kernel 1 '_Z14splitSort_nvm4iiPjS_S_'
GPGPU-Sim uArch: Shader 19 bind to kernel 1 '_Z14splitSort_nvm4iiPjS_S_'
GPGPU-Sim uArch: Shader 20 bind to kernel 1 '_Z14splitSort_nvm4iiPjS_S_'
GPGPU-Sim uArch: Shader 21 bind to kernel 1 '_Z14splitSort_nvm4iiPjS_S_'
GPGPU-Sim uArch: Shader 22 bind to kernel 1 '_Z14splitSort_nvm4iiPjS_S_'
GPGPU-Sim uArch: Shader 23 bind to kernel 1 '_Z14splitSort_nvm4iiPjS_S_'
GPGPU-Sim uArch: Shader 24 bind to kernel 1 '_Z14splitSort_nvm4iiPjS_S_'
GPGPU-Sim uArch: Shader 25 bind to kernel 1 '_Z14splitSort_nvm4iiPjS_S_'
GPGPU-Sim uArch: Shader 26 bind to kernel 1 '_Z14splitSort_nvm4iiPjS_S_'
GPGPU-Sim uArch: Shader 27 bind to kernel 1 '_Z14splitSort_nvm4iiPjS_S_'
GPGPU-Sim uArch: Shader 28 bind to kernel 1 '_Z14splitSort_nvm4iiPjS_S_'
GPGPU-Sim uArch: Shader 29 bind to kernel 1 '_Z14splitSort_nvm4iiPjS_S_'
GPGPU-Sim uArch: Shader 30 bind to kernel 1 '_Z14splitSort_nvm4iiPjS_S_'
GPGPU-Sim uArch: Shader 31 bind to kernel 1 '_Z14splitSort_nvm4iiPjS_S_'
GPGPU-Sim uArch: Shader 32 bind to kernel 1 '_Z14splitSort_nvm4iiPjS_S_'
GPGPU-Sim uArch: Shader 33 bind to kernel 1 '_Z14splitSort_nvm4iiPjS_S_'
GPGPU-Sim uArch: Shader 34 bind to kernel 1 '_Z14splitSort_nvm4iiPjS_S_'
GPGPU-Sim uArch: Shader 35 bind to kernel 1 '_Z14splitSort_nvm4iiPjS_S_'
GPGPU-Sim uArch: Shader 36 bind to kernel 1 '_Z14splitSort_nvm4iiPjS_S_'
GPGPU-Sim uArch: Shader 37 bind to kernel 1 '_Z14splitSort_nvm4iiPjS_S_'
GPGPU-Sim uArch: Shader 38 bind to kernel 1 '_Z14splitSort_nvm4iiPjS_S_'
GPGPU-Sim uArch: Shader 39 bind to kernel 1 '_Z14splitSort_nvm4iiPjS_S_'
GPGPU-Sim uArch: Shader 40 bind to kernel 1 '_Z14splitSort_nvm4iiPjS_S_'
GPGPU-Sim uArch: Shader 41 bind to kernel 1 '_Z14splitSort_nvm4iiPjS_S_'
GPGPU-Sim uArch: Shader 42 bind to kernel 1 '_Z14splitSort_nvm4iiPjS_S_'
GPGPU-Sim uArch: Shader 43 bind to kernel 1 '_Z14splitSort_nvm4iiPjS_S_'
GPGPU-Sim uArch: Shader 44 bind to kernel 1 '_Z14splitSort_nvm4iiPjS_S_'
GPGPU-Sim uArch: Shader 45 bind to kernel 1 '_Z14splitSort_nvm4iiPjS_S_'
GPGPU-Sim uArch: Shader 46 bind to kernel 1 '_Z14splitSort_nvm4iiPjS_S_'
GPGPU-Sim uArch: Shader 47 bind to kernel 1 '_Z14splitSort_nvm4iiPjS_S_'
GPGPU-Sim uArch: Shader 48 bind to kernel 1 '_Z14splitSort_nvm4iiPjS_S_'
GPGPU-Sim uArch: Shader 49 bind to kernel 1 '_Z14splitSort_nvm4iiPjS_S_'
GPGPU-Sim uArch: Shader 50 bind to kernel 1 '_Z14splitSort_nvm4iiPjS_S_'
GPGPU-Sim uArch: Shader 51 bind to kernel 1 '_Z14splitSort_nvm4iiPjS_S_'
GPGPU-Sim uArch: Shader 52 bind to kernel 1 '_Z14splitSort_nvm4iiPjS_S_'
GPGPU-Sim uArch: Shader 53 bind to kernel 1 '_Z14splitSort_nvm4iiPjS_S_'
GPGPU-Sim uArch: Shader 54 bind to kernel 1 '_Z14splitSort_nvm4iiPjS_S_'
GPGPU-Sim uArch: Shader 55 bind to kernel 1 '_Z14splitSort_nvm4iiPjS_S_'
GPGPU-Sim uArch: Shader 56 bind to kernel 1 '_Z14splitSort_nvm4iiPjS_S_'
GPGPU-Sim uArch: Shader 57 bind to kernel 1 '_Z14splitSort_nvm4iiPjS_S_'
GPGPU-Sim uArch: Shader 58 bind to kernel 1 '_Z14splitSort_nvm4iiPjS_S_'
GPGPU-Sim uArch: Shader 59 bind to kernel 1 '_Z14splitSort_nvm4iiPjS_S_'
GPGPU-Sim uArch: Shader 60 bind to kernel 1 '_Z14splitSort_nvm4iiPjS_S_'
GPGPU-Sim uArch: Shader 61 bind to kernel 1 '_Z14splitSort_nvm4iiPjS_S_'
GPGPU-Sim uArch: Shader 62 bind to kernel 1 '_Z14splitSort_nvm4iiPjS_S_'
GPGPU-Sim uArch: Shader 63 bind to kernel 1 '_Z14splitSort_nvm4iiPjS_S_'
GPGPU-Sim uArch: Shader 64 bind to kernel 1 '_Z14splitSort_nvm4iiPjS_S_'
GPGPU-Sim uArch: Shader 65 bind to kernel 1 '_Z14splitSort_nvm4iiPjS_S_'
GPGPU-Sim uArch: Shader 66 bind to kernel 1 '_Z14splitSort_nvm4iiPjS_S_'
GPGPU-Sim uArch: Shader 67 bind to kernel 1 '_Z14splitSort_nvm4iiPjS_S_'
GPGPU-Sim uArch: Shader 68 bind to kernel 1 '_Z14splitSort_nvm4iiPjS_S_'
GPGPU-Sim uArch: Shader 69 bind to kernel 1 '_Z14splitSort_nvm4iiPjS_S_'
GPGPU-Sim uArch: Shader 70 bind to kernel 1 '_Z14splitSort_nvm4iiPjS_S_'
GPGPU-Sim uArch: Shader 71 bind to kernel 1 '_Z14splitSort_nvm4iiPjS_S_'
GPGPU-Sim uArch: Shader 72 bind to kernel 1 '_Z14splitSort_nvm4iiPjS_S_'
GPGPU-Sim uArch: Shader 73 bind to kernel 1 '_Z14splitSort_nvm4iiPjS_S_'
GPGPU-Sim uArch: Shader 74 bind to kernel 1 '_Z14splitSort_nvm4iiPjS_S_'
GPGPU-Sim uArch: Shader 75 bind to kernel 1 '_Z14splitSort_nvm4iiPjS_S_'
GPGPU-Sim uArch: Shader 76 bind to kernel 1 '_Z14splitSort_nvm4iiPjS_S_'
GPGPU-Sim uArch: Shader 77 bind to kernel 1 '_Z14splitSort_nvm4iiPjS_S_'
GPGPU-Sim uArch: Shader 78 bind to kernel 1 '_Z14splitSort_nvm4iiPjS_S_'
GPGPU-Sim uArch: Shader 79 bind to kernel 1 '_Z14splitSort_nvm4iiPjS_S_'
Destroy streams for kernel 1: size 0
kernel_name = _Z14splitSort_nvm4iiPjS_S_ 
kernel_launch_uid = 1 
gpu_sim_cycle = 560952
gpu_sim_insn = 1030877426
gpu_ipc =    1837.7284
gpu_tot_sim_cycle = 560952
gpu_tot_sim_insn = 1030877426
gpu_tot_ipc =    1837.7284
gpu_tot_issued_cta = 2594
gpu_occupancy = 58.0513% 
gpu_tot_occupancy = 58.0513% 
max_total_param_size = 0
gpu_stall_dramfull = 305988
gpu_stall_icnt2sh    = 4090
partiton_level_parallism =      28.7550
partiton_level_parallism_total  =      28.7550
partiton_level_parallism_util =      31.0219
partiton_level_parallism_util_total  =      31.0219
L2_BW  =    1041.6209 GB/Sec
L2_BW_total  =    1041.6209 GB/Sec
gpu_total_sim_rate=189778
############## bottleneck_stats #############
cycles: core 560952, icnt 560952, l2 560952, dram 421209
gpu_ipc	1837.728
gpu_tot_issued_cta = 2594, average cycles = 216
n_dram_writes	 0, n_dram_reads	 0
n_GLOBAL_ACC_R	 1192850 
n_LOCAL_ACC_R	 0 
n_CONST_ACC_R	 0 
n_TEXTURE_ACC_R	 0 
n_GLOBAL_ACC_W	 0 
n_LOCAL_ACC_W	 0 
n_L1_WRBK_ACC	 0 
n_L2_WRBK_ACC	 962196 
n_L1_WR_ALLOC_R	 0 
n_L2_WR_ALLOC_R	 0 

n_sm	 80, n_schedulers	 4
scheduler util	0.195	80
L1D data util	0.679	80	0.696	46
L1D tag util	0.226	80	0.231	58
L2 data util	0.439	64	0.445	15
L2 tag util	0.366	64	0.374	49
n_l2_access	 13152955
icnt s2m util	0.000	0	0.000	49	flits per packet: -nan
icnt m2s util	0.000	0	0.000	49	flits per packet: -nan
sum=0
n_mem	 32
dram util	0.280	32	0.284	15

latency_l1_hit:	57911279, num_l1_reqs:	1527937
L1 hit latency:	37
latency_l2_hit:	-354617843, num_l2_reqs:	8875712
L2 hit latency:	927
latency_dram:	-694505829, num_dram_reqs:	4234993
DRAM latency:	850

n_reg	65536, n_smem	98304, n_thread	2048, n_tb	32
reg file	0.938
smem size	0.228
thread slot	0.625
TB slot    	0.156
L1I tag util	0.434	80	0.442	3

n_mem_pipe	1, n_sp_pipe	4, n_sfu_pipe	4
mem pipe util	0.114	80	0.116	3
sp pipe util	0.000	0	0.000	3
sfu pipe util	0.000	0	0.000	3
ldst mem cycle	0.198	80	0.201	3

smem port	0.419	80

n_reg_bank	16
reg port	0.101	16	0.156	1
L1D tag util	0.226	80	0.231	58
L1D fill util	0.042	80	0.044	46
n_l1d_mshr	4096
L1D mshr util	0.013	80
n_l1d_missq	16
L1D missq util	0.053	80
L1D hit rate	0.151
L1D miss rate	0.713
L1D rsfail rate	0.136
L2 tag util	0.366	64	0.374	49
L2 fill util	0.033	64	0.033	5
n_l2_mshr	192
n_l2_missq	32
L2 mshr util	0.114	64	0.116	59
L2 missq util	0.002	64	0.002	6
L2 hit rate	0.677
L2 miss rate	0.322
L2 rsfail rate	0.001

dram activity	0.607	32	0.617	7

load trans eff	0.248
load trans sz	32.000
load_useful_bytes 26725136, load_transaction_bytes 107564608, icnt_m2s_bytes 0
n_gmem_load_insns 210094, n_gmem_load_accesses 3361394
n_smem_access_insn 3937719, n_smem_accesses 18796160

tmp_counter/12	0.471

run 0.033, fetch 0.001, sync 0.568, control 0.002, data 0.376, struct 0.020
############ end_bottleneck_stats #############

========= Core cache stats =========
L1I_cache:
	L1I_total_cache_accesses = 0
	L1I_total_cache_misses = 0
	L1I_total_cache_pending_hits = 0
	L1I_total_cache_reservation_fails = 0
L1D_cache:
	L1D_cache_core[0]: Access = 108096, Miss = 89067, Miss_rate = 0.824, Pending_hits = 0, Reservation_fails = 18856
	L1D_cache_core[1]: Access = 108096, Miss = 88431, Miss_rate = 0.818, Pending_hits = 0, Reservation_fails = 19120
	L1D_cache_core[2]: Access = 108096, Miss = 88098, Miss_rate = 0.815, Pending_hits = 0, Reservation_fails = 16321
	L1D_cache_core[3]: Access = 111474, Miss = 91005, Miss_rate = 0.816, Pending_hits = 0, Reservation_fails = 15973
	L1D_cache_core[4]: Access = 108096, Miss = 90124, Miss_rate = 0.834, Pending_hits = 0, Reservation_fails = 17820
	L1D_cache_core[5]: Access = 108096, Miss = 89452, Miss_rate = 0.828, Pending_hits = 0, Reservation_fails = 20772
	L1D_cache_core[6]: Access = 108096, Miss = 89547, Miss_rate = 0.828, Pending_hits = 0, Reservation_fails = 18729
	L1D_cache_core[7]: Access = 108096, Miss = 89301, Miss_rate = 0.826, Pending_hits = 0, Reservation_fails = 17113
	L1D_cache_core[8]: Access = 111474, Miss = 91932, Miss_rate = 0.825, Pending_hits = 0, Reservation_fails = 17395
	L1D_cache_core[9]: Access = 108096, Miss = 89941, Miss_rate = 0.832, Pending_hits = 0, Reservation_fails = 19912
	L1D_cache_core[10]: Access = 108096, Miss = 88754, Miss_rate = 0.821, Pending_hits = 0, Reservation_fails = 17235
	L1D_cache_core[11]: Access = 111474, Miss = 91805, Miss_rate = 0.824, Pending_hits = 0, Reservation_fails = 15358
	L1D_cache_core[12]: Access = 108096, Miss = 89961, Miss_rate = 0.832, Pending_hits = 0, Reservation_fails = 18560
	L1D_cache_core[13]: Access = 108096, Miss = 89418, Miss_rate = 0.827, Pending_hits = 0, Reservation_fails = 18299
	L1D_cache_core[14]: Access = 111474, Miss = 91415, Miss_rate = 0.820, Pending_hits = 0, Reservation_fails = 15904
	L1D_cache_core[15]: Access = 111474, Miss = 90268, Miss_rate = 0.810, Pending_hits = 0, Reservation_fails = 15284
	L1D_cache_core[16]: Access = 108096, Miss = 89063, Miss_rate = 0.824, Pending_hits = 0, Reservation_fails = 16439
	L1D_cache_core[17]: Access = 108096, Miss = 89440, Miss_rate = 0.827, Pending_hits = 0, Reservation_fails = 17764
	L1D_cache_core[18]: Access = 111474, Miss = 91810, Miss_rate = 0.824, Pending_hits = 0, Reservation_fails = 15518
	L1D_cache_core[19]: Access = 108096, Miss = 90171, Miss_rate = 0.834, Pending_hits = 0, Reservation_fails = 16718
	L1D_cache_core[20]: Access = 108096, Miss = 88926, Miss_rate = 0.823, Pending_hits = 0, Reservation_fails = 18797
	L1D_cache_core[21]: Access = 108096, Miss = 88771, Miss_rate = 0.821, Pending_hits = 0, Reservation_fails = 17308
	L1D_cache_core[22]: Access = 111474, Miss = 92128, Miss_rate = 0.826, Pending_hits = 0, Reservation_fails = 16461
	L1D_cache_core[23]: Access = 108096, Miss = 89968, Miss_rate = 0.832, Pending_hits = 0, Reservation_fails = 17806
	L1D_cache_core[24]: Access = 111474, Miss = 92202, Miss_rate = 0.827, Pending_hits = 0, Reservation_fails = 17642
	L1D_cache_core[25]: Access = 110356, Miss = 90621, Miss_rate = 0.821, Pending_hits = 0, Reservation_fails = 17273
	L1D_cache_core[26]: Access = 108096, Miss = 89230, Miss_rate = 0.825, Pending_hits = 0, Reservation_fails = 17572
	L1D_cache_core[27]: Access = 108096, Miss = 89010, Miss_rate = 0.823, Pending_hits = 0, Reservation_fails = 18201
	L1D_cache_core[28]: Access = 111474, Miss = 91569, Miss_rate = 0.821, Pending_hits = 0, Reservation_fails = 15406
	L1D_cache_core[29]: Access = 108096, Miss = 90356, Miss_rate = 0.836, Pending_hits = 0, Reservation_fails = 19049
	L1D_cache_core[30]: Access = 111474, Miss = 91312, Miss_rate = 0.819, Pending_hits = 0, Reservation_fails = 17084
	L1D_cache_core[31]: Access = 111474, Miss = 92573, Miss_rate = 0.830, Pending_hits = 0, Reservation_fails = 16915
	L1D_cache_core[32]: Access = 108096, Miss = 89600, Miss_rate = 0.829, Pending_hits = 0, Reservation_fails = 17411
	L1D_cache_core[33]: Access = 108096, Miss = 89608, Miss_rate = 0.829, Pending_hits = 0, Reservation_fails = 17183
	L1D_cache_core[34]: Access = 108096, Miss = 88822, Miss_rate = 0.822, Pending_hits = 0, Reservation_fails = 17637
	L1D_cache_core[35]: Access = 108096, Miss = 89630, Miss_rate = 0.829, Pending_hits = 0, Reservation_fails = 18725
	L1D_cache_core[36]: Access = 108096, Miss = 88678, Miss_rate = 0.820, Pending_hits = 0, Reservation_fails = 17266
	L1D_cache_core[37]: Access = 108096, Miss = 89568, Miss_rate = 0.829, Pending_hits = 0, Reservation_fails = 19562
	L1D_cache_core[38]: Access = 108096, Miss = 90056, Miss_rate = 0.833, Pending_hits = 0, Reservation_fails = 17053
	L1D_cache_core[39]: Access = 111474, Miss = 92254, Miss_rate = 0.828, Pending_hits = 0, Reservation_fails = 15881
	L1D_cache_core[40]: Access = 108096, Miss = 88867, Miss_rate = 0.822, Pending_hits = 0, Reservation_fails = 17139
	L1D_cache_core[41]: Access = 111474, Miss = 92719, Miss_rate = 0.832, Pending_hits = 0, Reservation_fails = 17233
	L1D_cache_core[42]: Access = 108096, Miss = 89646, Miss_rate = 0.829, Pending_hits = 0, Reservation_fails = 17787
	L1D_cache_core[43]: Access = 111474, Miss = 91913, Miss_rate = 0.825, Pending_hits = 0, Reservation_fails = 17492
	L1D_cache_core[44]: Access = 108096, Miss = 89588, Miss_rate = 0.829, Pending_hits = 0, Reservation_fails = 18585
	L1D_cache_core[45]: Access = 108096, Miss = 89884, Miss_rate = 0.832, Pending_hits = 0, Reservation_fails = 19373
	L1D_cache_core[46]: Access = 111474, Miss = 93055, Miss_rate = 0.835, Pending_hits = 0, Reservation_fails = 17123
	L1D_cache_core[47]: Access = 111474, Miss = 91284, Miss_rate = 0.819, Pending_hits = 0, Reservation_fails = 16495
	L1D_cache_core[48]: Access = 111474, Miss = 92211, Miss_rate = 0.827, Pending_hits = 0, Reservation_fails = 15371
	L1D_cache_core[49]: Access = 111474, Miss = 92077, Miss_rate = 0.826, Pending_hits = 0, Reservation_fails = 16476
	L1D_cache_core[50]: Access = 108096, Miss = 89670, Miss_rate = 0.830, Pending_hits = 0, Reservation_fails = 15921
	L1D_cache_core[51]: Access = 111474, Miss = 91575, Miss_rate = 0.821, Pending_hits = 0, Reservation_fails = 13727
	L1D_cache_core[52]: Access = 111474, Miss = 91630, Miss_rate = 0.822, Pending_hits = 0, Reservation_fails = 15908
	L1D_cache_core[53]: Access = 108096, Miss = 89383, Miss_rate = 0.827, Pending_hits = 0, Reservation_fails = 17531
	L1D_cache_core[54]: Access = 108096, Miss = 90053, Miss_rate = 0.833, Pending_hits = 0, Reservation_fails = 17800
	L1D_cache_core[55]: Access = 111474, Miss = 92043, Miss_rate = 0.826, Pending_hits = 0, Reservation_fails = 16648
	L1D_cache_core[56]: Access = 111474, Miss = 92144, Miss_rate = 0.827, Pending_hits = 0, Reservation_fails = 16821
	L1D_cache_core[57]: Access = 108096, Miss = 89507, Miss_rate = 0.828, Pending_hits = 0, Reservation_fails = 18477
	L1D_cache_core[58]: Access = 111474, Miss = 91014, Miss_rate = 0.816, Pending_hits = 0, Reservation_fails = 17893
	L1D_cache_core[59]: Access = 108096, Miss = 89261, Miss_rate = 0.826, Pending_hits = 0, Reservation_fails = 17375
	L1D_cache_core[60]: Access = 111474, Miss = 91377, Miss_rate = 0.820, Pending_hits = 0, Reservation_fails = 15791
	L1D_cache_core[61]: Access = 111474, Miss = 91808, Miss_rate = 0.824, Pending_hits = 0, Reservation_fails = 16925
	L1D_cache_core[62]: Access = 111474, Miss = 91261, Miss_rate = 0.819, Pending_hits = 0, Reservation_fails = 17080
	L1D_cache_core[63]: Access = 108096, Miss = 89870, Miss_rate = 0.831, Pending_hits = 0, Reservation_fails = 17252
	L1D_cache_core[64]: Access = 111474, Miss = 91585, Miss_rate = 0.822, Pending_hits = 0, Reservation_fails = 15196
	L1D_cache_core[65]: Access = 108096, Miss = 90238, Miss_rate = 0.835, Pending_hits = 0, Reservation_fails = 17895
	L1D_cache_core[66]: Access = 108096, Miss = 89523, Miss_rate = 0.828, Pending_hits = 0, Reservation_fails = 17225
	L1D_cache_core[67]: Access = 111474, Miss = 91031, Miss_rate = 0.817, Pending_hits = 0, Reservation_fails = 15925
	L1D_cache_core[68]: Access = 111474, Miss = 92199, Miss_rate = 0.827, Pending_hits = 0, Reservation_fails = 16534
	L1D_cache_core[69]: Access = 108096, Miss = 90002, Miss_rate = 0.833, Pending_hits = 0, Reservation_fails = 20848
	L1D_cache_core[70]: Access = 111474, Miss = 92724, Miss_rate = 0.832, Pending_hits = 0, Reservation_fails = 17686
	L1D_cache_core[71]: Access = 108096, Miss = 89081, Miss_rate = 0.824, Pending_hits = 0, Reservation_fails = 16956
	L1D_cache_core[72]: Access = 111474, Miss = 91354, Miss_rate = 0.820, Pending_hits = 0, Reservation_fails = 16628
	L1D_cache_core[73]: Access = 108096, Miss = 89766, Miss_rate = 0.830, Pending_hits = 0, Reservation_fails = 17872
	L1D_cache_core[74]: Access = 108096, Miss = 89438, Miss_rate = 0.827, Pending_hits = 0, Reservation_fails = 18799
	L1D_cache_core[75]: Access = 111474, Miss = 91458, Miss_rate = 0.820, Pending_hits = 0, Reservation_fails = 16107
	L1D_cache_core[76]: Access = 108096, Miss = 89138, Miss_rate = 0.825, Pending_hits = 0, Reservation_fails = 16809
[...]

------------------------------------------------------------------------

Row_Buffer_Locality = 0.943615
Row_Buffer_Locality_read = 0.939174
Row_Buffer_Locality_write = 0.947375
Bank_Level_Parallism = 1.929679
Bank_Level_Parallism_Col = 1.824593
Bank_Level_Parallism_Ready = 1.120160
write_to_read_ratio_blp_rw_average = 0.645234
GrpLevelPara = 1.586862 

BW Util details:
bwutil = 0.223576 
total_CMD = 1056660 
util_bw = 236244 
Wasted_Col = 237960 
Wasted_Row = 29157 
Idle = 553299 

BW Util Bottlenecks: 
RCDc_limit = 28265 
RCDWRc_limit = 21955 
WTRc_limit = 117044 
RTWc_limit = 59267 
CCDLc_limit = 207293 
rwq = 0 
CCDLc_limit_alone = 181033 
WTRc_limit_alone = 96013 
RTWc_limit_alone = 54038 

Commands details: 
total_CMD = 1056660 
n_nop = 810792 
Read = 58380 
Write = 0 
L2_Alloc = 0 
L2_WB = 177864 
n_act = 7180 
n_pre = 7164 
n_ref = 0 
n_req = 127339 
total_req = 236244 

Dual Bus Interface Util: 
issued_total_row = 14344 
issued_total_col = 236244 
Row_Bus_Util =  0.013575 
CoL_Bus_Util = 0.223576 
Either_Row_CoL_Bus_Util = 0.232684 
Issued_on_Two_Bus_Simul_Util = 0.004467 
issued_two_Eff = 0.019197 
queue_avg = 6.718950 


dram_util_bins: 0 0 0 0 0 0 0 0 0 0
dram_eff_bins: 0 0 0 0 0 0 0 0 0 0
mrqq: max=64 avg=6.71895
Memory Partition 29: 
Cache L2_bank_058:

Cache L2_bank_059:

In Dram Latency Queue (total = 0): 
DRAM[29]: 16 bks, busW=16 BL=2 CL=12, tRRD=3 tCCD=1, tRCD=12 tRAS=28 tRP=12 tRC=40
n_cmd=1056660 n_nop=780840 n_act=6907 n_pre=6891 n_ref_event=0 n_req=143017 n_rd=58340 n_rd_L2_A=0 n_write=0 n_wr_bk=208506 bw_util=0.2525
n_activity=623269 dram_eff=0.4281
bk0: 3632a 1005826i bk1: 3624a 1007178i bk2: 3640a 819599i bk3: 3588a 1019077i bk4: 3664a 1022817i bk5: 3656a 1022124i bk6: 3524a 1022961i bk7: 3560a 1021865i bk8: 3648a 1024612i bk9: 3624a 1023151i bk10: 3680a 1026240i bk11: 3688a 1023897i bk12: 3664a 1019273i bk13: 3684a 1018122i bk14: 3744a 1008684i bk15: 3720a 1010281i 

------------------------------------------------------------------------

Row_Buffer_Locality = 0.951705
Row_Buffer_Locality_read = 0.941790
Row_Buffer_Locality_write = 0.958537
Bank_Level_Parallism = 1.715427
Bank_Level_Parallism_Col = 1.612110
Bank_Level_Parallism_Ready = 1.106076
write_to_read_ratio_blp_rw_average = 0.713678
GrpLevelPara = 1.431909 

BW Util details:
bwutil = 0.252537 
total_CMD = 1056660 
util_bw = 266846 
Wasted_Col = 261332 
Wasted_Row = 27876 
Idle = 500606 

BW Util Bottlenecks: 
RCDc_limit = 26108 
RCDWRc_limit = 21245 
WTRc_limit = 84521 
RTWc_limit = 61422 
CCDLc_limit = 218665 
rwq = 0 
CCDLc_limit_alone = 200260 
WTRc_limit_alone = 71031 
RTWc_limit_alone = 56507 

Commands details: 
total_CMD = 1056660 
n_nop = 780840 
Read = 58340 
Write = 0 
L2_Alloc = 0 
L2_WB = 208506 
n_act = 6907 
n_pre = 6891 
n_ref = 0 
n_req = 143017 
total_req = 266846 

Dual Bus Interface Util: 
issued_total_row = 13798 
issued_total_col = 266846 
Row_Bus_Util =  0.013058 
CoL_Bus_Util = 0.252537 
Either_Row_CoL_Bus_Util = 0.261030 
Issued_on_Two_Bus_Simul_Util = 0.004565 
issued_two_Eff = 0.017490 
queue_avg = 4.310385 


dram_util_bins: 0 0 0 0 0 0 0 0 0 0
dram_eff_bins: 0 0 0 0 0 0 0 0 0 0
mrqq: max=64 avg=4.31038
Memory Partition 30: 
Cache L2_bank_060:

Cache L2_bank_061:

In Dram Latency Queue (total = 0): 
DRAM[30]: 16 bks, busW=16 BL=2 CL=12, tRRD=3 tCCD=1, tRCD=12 tRAS=28 tRP=12 tRC=40
n_cmd=1056660 n_nop=782024 n_act=6817 n_pre=6801 n_ref_event=0 n_req=140349 n_rd=58192 n_rd_L2_A=0 n_write=0 n_wr_bk=207357 bw_util=0.2513
n_activity=609557 dram_eff=0.4356
bk0: 3648a 1010501i bk1: 3628a 1015742i bk2: 3616a 821064i bk3: 3572a 1019811i bk4: 3664a 1021141i bk5: 3640a 1023558i bk6: 3504a 1022736i bk7: 3548a 1020429i bk8: 3632a 1023631i bk9: 3616a 1025046i bk10: 3656a 1023686i bk11: 3648a 1023519i bk12: 3672a 1019679i bk13: 3680a 1018436i bk14: 3732a 1012831i bk15: 3736a 1011489i 

------------------------------------------------------------------------

Row_Buffer_Locality = 0.951428
Row_Buffer_Locality_read = 0.942810
Row_Buffer_Locality_write = 0.957533
Bank_Level_Parallism = 1.685204
Bank_Level_Parallism_Col = 1.586384
Bank_Level_Parallism_Ready = 1.104165
write_to_read_ratio_blp_rw_average = 0.716868
GrpLevelPara = 1.415714 

BW Util details:
bwutil = 0.251310 
total_CMD = 1056660 
util_bw = 265549 
Wasted_Col = 259696 
Wasted_Row = 28759 
Idle = 502656 

BW Util Bottlenecks: 
RCDc_limit = 25907 
RCDWRc_limit = 21621 
WTRc_limit = 78532 
RTWc_limit = 56312 
CCDLc_limit = 220763 
rwq = 0 
CCDLc_limit_alone = 203027 
WTRc_limit_alone = 65362 
RTWc_limit_alone = 51746 

Commands details: 
total_CMD = 1056660 
n_nop = 782024 
Read = 58192 
Write = 0 
L2_Alloc = 0 
L2_WB = 207357 
n_act = 6817 
n_pre = 6801 
n_ref = 0 
n_req = 140349 
total_req = 265549 

Dual Bus Interface Util: 
issued_total_row = 13618 
issued_total_col = 265549 
Row_Bus_Util =  0.012888 
CoL_Bus_Util = 0.251310 
Either_Row_CoL_Bus_Util = 0.259910 
Issued_on_Two_Bus_Simul_Util = 0.004288 
issued_two_Eff = 0.016498 
queue_avg = 4.615000 


dram_util_bins: 0 0 0 0 0 0 0 0 0 0
dram_eff_bins: 0 0 0 0 0 0 0 0 0 0
mrqq: max=64 avg=4.615
Memory Partition 31: 
Cache L2_bank_062:

Cache L2_bank_063:

In Dram Latency Queue (total = 0): 
DRAM[31]: 16 bks, busW=16 BL=2 CL=12, tRRD=3 tCCD=1, tRCD=12 tRAS=28 tRP=12 tRC=40
n_cmd=1056660 n_nop=779553 n_act=6805 n_pre=6789 n_ref_event=0 n_req=142791 n_rd=58133 n_rd_L2_A=0 n_write=0 n_wr_bk=210030 bw_util=0.2538
n_activity=625907 dram_eff=0.4284
bk0: 3640a 1008268i bk1: 3632a 1010621i bk2: 3612a 818400i bk3: 3572a 1017669i bk4: 3664a 1022033i bk5: 3640a 1020629i bk6: 3484a 1021800i bk7: 3544a 1023150i bk8: 3632a 1023236i bk9: 3616a 1023822i bk10: 3652a 1021311i bk11: 3644a 1023791i bk12: 3669a 1019438i bk13: 3676a 1015643i bk14: 3728a 1008092i bk15: 3728a 1008807i 

------------------------------------------------------------------------

Row_Buffer_Locality = 0.952343
Row_Buffer_Locality_read = 0.942442
Row_Buffer_Locality_write = 0.959141
Bank_Level_Parallism = 1.715916
Bank_Level_Parallism_Col = 1.618795
Bank_Level_Parallism_Ready = 1.101517
write_to_read_ratio_blp_rw_average = 0.710231
GrpLevelPara = 1.433424 

BW Util details:
bwutil = 0.253784 
total_CMD = 1056660 
util_bw = 268163 
Wasted_Col = 264515 
Wasted_Row = 28329 
Idle = 495653 

BW Util Bottlenecks: 
RCDc_limit = 25759 
RCDWRc_limit = 21233 
WTRc_limit = 90606 
RTWc_limit = 59428 
CCDLc_limit = 225995 
rwq = 0 
CCDLc_limit_alone = 203914 
WTRc_limit_alone = 73051 
RTWc_limit_alone = 54902 

Commands details: 
total_CMD = 1056660 
n_nop = 779553 
Read = 58133 
Write = 0 
L2_Alloc = 0 
L2_WB = 210030 
n_act = 6805 
n_pre = 6789 
n_ref = 0 
n_req = 142791 
total_req = 268163 

Dual Bus Interface Util: 
issued_total_row = 13594 
issued_total_col = 268163 
Row_Bus_Util =  0.012865 
CoL_Bus_Util = 0.253784 
Either_Row_CoL_Bus_Util = 0.262248 
Issued_on_Two_Bus_Simul_Util = 0.004401 
issued_two_Eff = 0.016781 
queue_avg = 4.828581 


dram_util_bins: 0 0 0 0 0 0 0 0 0 0
dram_eff_bins: 0 0 0 0 0 0 0 0 0 0
mrqq: max=64 avg=4.82858

========= L2 cache stats =========
L2_cache_bank[0]: Access = 321025, Miss = 76481, Miss_rate = 0.238, Pending_hits = 183, Reservation_fails = 11935
L2_cache_bank[1]: Access = 498282, Miss = 76772, Miss_rate = 0.154, Pending_hits = 207, Reservation_fails = 13749
L2_cache_bank[2]: Access = 334052, Miss = 76462, Miss_rate = 0.229, Pending_hits = 209, Reservation_fails = 11287
L2_cache_bank[3]: Access = 511630, Miss = 76808, Miss_rate = 0.150, Pending_hits = 218, Reservation_fails = 9067
L2_cache_bank[4]: Access = 487381, Miss = 223195, Miss_rate = 0.458, Pending_hits = 199, Reservation_fails = 7703
L2_cache_bank[5]: Access = 493541, Miss = 76883, Miss_rate = 0.156, Pending_hits = 211, Reservation_fails = 11382
L2_cache_bank[6]: Access = 500102, Miss = 242801, Miss_rate = 0.486, Pending_hits = 228, Reservation_fails = 19204
L2_cache_bank[7]: Access = 518242, Miss = 76804, Miss_rate = 0.148, Pending_hits = 224, Reservation_fails = 16987
L2_cache_bank[8]: Access = 512617, Miss = 252212, Miss_rate = 0.492, Pending_hits = 224, Reservation_fails = 17130
L2_cache_bank[9]: Access = 502436, Miss = 76672, Miss_rate = 0.153, Pending_hits = 191, Reservation_fails = 12566
L2_cache_bank[10]: Access = 496527, Miss = 242889, Miss_rate = 0.489, Pending_hits = 232, Reservation_fails = 14929
L2_cache_bank[11]: Access = 522902, Miss = 76690, Miss_rate = 0.147, Pending_hits = 222, Reservation_fails = 12405
L2_cache_bank[12]: Access = 511363, Miss = 252205, Miss_rate = 0.493, Pending_hits = 196, Reservation_fails = 11967
L2_cache_bank[13]: Access = 504403, Miss = 76773, Miss_rate = 0.152, Pending_hits = 226, Reservation_fails = 17394
L2_cache_bank[14]: Access = 495332, Miss = 242876, Miss_rate = 0.490, Pending_hits = 223, Reservation_fails = 11075
L2_cache_bank[15]: Access = 523551, Miss = 76751, Miss_rate = 0.147, Pending_hits = 208, Reservation_fails = 13080
L2_cache_bank[16]: Access = 518977, Miss = 252268, Miss_rate = 0.486, Pending_hits = 225, Reservation_fails = 15565
L2_cache_bank[17]: Access = 506895, Miss = 76792, Miss_rate = 0.151, Pending_hits = 194, Reservation_fails = 11587
L2_cache_bank[18]: Access = 503766, Miss = 242807, Miss_rate = 0.482, Pending_hits = 218, Reservation_fails = 13774
L2_cache_bank[19]: Access = 513789, Miss = 76697, Miss_rate = 0.149, Pending_hits = 239, Reservation_fails = 12971
L2_cache_bank[20]: Access = 520573, Miss = 252032, Miss_rate = 0.484, Pending_hits = 190, Reservation_fails = 12923
L2_cache_bank[21]: Access = 493736, Miss = 76622, Miss_rate = 0.155, Pending_hits = 240, Reservation_fails = 15532
L2_cache_bank[22]: Access = 503848, Miss = 242752, Miss_rate = 0.482, Pending_hits = 200, Reservation_fails = 10163
L2_cache_bank[23]: Access = 272187, Miss = 76485, Miss_rate = 0.281, Pending_hits = 218, Reservation_fails = 12041
L2_cache_bank[24]: Access = 474596, Miss = 252088, Miss_rate = 0.531, Pending_hits = 229, Reservation_fails = 9704
L2_cache_bank[25]: Access = 172504, Miss = 76554, Miss_rate = 0.444, Pending_hits = 207, Reservation_fails = 14680
L2_cache_bank[26]: Access = 505359, Miss = 242742, Miss_rate = 0.480, Pending_hits = 207, Reservation_fails = 10413
L2_cache_bank[27]: Access = 219220, Miss = 76577, Miss_rate = 0.349, Pending_hits = 195, Reservation_fails = 11546
L2_cache_bank[28]: Access = 510390, Miss = 251912, Miss_rate = 0.494, Pending_hits = 210, Reservation_fails = 11463
L2_cache_bank[29]: Access = 218721, Miss = 76462, Miss_rate = 0.350, Pending_hits = 224, Reservation_fails = 13277
L2_cache_bank[30]: Access = 492138, Miss = 242643, Miss_rate = 0.493, Pending_hits = 198, Reservation_fails = 12709
L2_cache_bank[31]: Access = 218331, Miss = 76461, Miss_rate = 0.350, Pending_hits = 212, Reservation_fails = 13063
L2_cache_bank[32]: Access = 413869, Miss = 251946, Miss_rate = 0.609, Pending_hits = 202, Reservation_fails = 9365
L2_cache_bank[33]: Access = 218713, Miss = 76470, Miss_rate = 0.350, Pending_hits = 214, Reservation_fails = 11026
L2_cache_bank[34]: Access = 384731, Miss = 242863, Miss_rate = 0.631, Pending_hits = 210, Reservation_fails = 10709
L2_cache_bank[35]: Access = 218533, Miss = 76577, Miss_rate = 0.350, Pending_hits = 221, Reservation_fails = 11028
L2_cache_bank[36]: Access = 248052, Miss = 105973, Miss_rate = 0.427, Pending_hits = 198, Reservation_fails = 6475
L2_cache_bank[37]: Access = 218803, Miss = 76593, Miss_rate = 0.350, Pending_hits = 201, Reservation_fails = 9313
L2_cache_bank[38]: Access = 218964, Miss = 76794, Miss_rate = 0.351, Pending_hits = 217, Reservation_fails = 10333
L2_cache_bank[39]: Access = 218970, Miss = 76448, Miss_rate = 0.349, Pending_hits = 205, Reservation_fails = 13917
L2_cache_bank[40]: Access = 219780, Miss = 76737, Miss_rate = 0.349, Pending_hits = 198, Reservation_fails = 14951
L2_cache_bank[41]: Access = 219434, Miss = 76358, Miss_rate = 0.348, Pending_hits = 205, Reservation_fails = 11251
L2_cache_bank[42]: Access = 219704, Miss = 76753, Miss_rate = 0.349, Pending_hits = 213, Reservation_fails = 13132
L2_cache_bank[43]: Access = 219328, Miss = 76401, Miss_rate = 0.348, Pending_hits = 198, Reservation_fails = 9769
L2_cache_bank[44]: Access = 219545, Miss = 76747, Miss_rate = 0.350, Pending_hits = 233, Reservation_fails = 12932
L2_cache_bank[45]: Access = 218904, Miss = 76420, Miss_rate = 0.349, Pending_hits = 206, Reservation_fails = 10407
L2_cache_bank[46]: Access = 219643, Miss = 76758, Miss_rate = 0.349, Pending_hits = 212, Reservation_fails = 12181
L2_cache_bank[47]: Access = 219591, Miss = 76427, Miss_rate = 0.348, Pending_hits = 224, Reservation_fails = 15245
L2_cache_bank[48]: Access = 219598, Miss = 76813, Miss_rate = 0.350, Pending_hits = 202, Reservation_fails = 11042
L2_cache_bank[49]: Access = 220430, Miss = 76477, Miss_rate = 0.347, Pending_hits = 241, Reservation_fails = 16145
L2_cache_bank[50]: Access = 219916, Miss = 76727, Miss_rate = 0.349, Pending_hits = 189, Reservation_fails = 10937
L2_cache_bank[51]: Access = 220291, Miss = 76456, Miss_rate = 0.347, Pending_hits = 203, Reservation_fails = 10277
L2_cache_bank[52]: Access = 220084, Miss = 76686, Miss_rate = 0.348, Pending_hits = 222, Reservation_fails = 11517
L2_cache_bank[53]: Access = 220201, Miss = 76428, Miss_rate = 0.347, Pending_hits = 217, Reservation_fails = 11031
L2_cache_bank[54]: Access = 464056, Miss = 76718, Miss_rate = 0.165, Pending_hits = 217, Reservation_fails = 14962
L2_cache_bank[55]: Access = 219981, Miss = 76436, Miss_rate = 0.347, Pending_hits = 218, Reservation_fails = 14422
L2_cache_bank[56]: Access = 452790, Miss = 76896, Miss_rate = 0.170, Pending_hits = 216, Reservation_fails = 8786
L2_cache_bank[57]: Access = 173497, Miss = 76536, Miss_rate = 0.441, Pending_hits = 239, Reservation_fails = 16403
L2_cache_bank[58]: Access = 519176, Miss = 76831, Miss_rate = 0.148, Pending_hits = 189, Reservation_fails = 10608
L2_cache_bank[59]: Access = 219579, Miss = 76513, Miss_rate = 0.348, Pending_hits = 211, Reservation_fails = 8704
L2_cache_bank[60]: Access = 501506, Miss = 76754, Miss_rate = 0.153, Pending_hits = 199, Reservation_fails = 11698
L2_cache_bank[61]: Access = 219413, Miss = 76443, Miss_rate = 0.348, Pending_hits = 206, Reservation_fails = 12334
L2_cache_bank[62]: Access = 516435, Miss = 76697, Miss_rate = 0.149, Pending_hits = 211, Reservation_fails = 10880
L2_cache_bank[63]: Access = 219098, Miss = 76406, Miss_rate = 0.349, Pending_hits = 198, Reservation_fails = 10257
L2_total_cache_accesses = 23101031
L2_total_cache_misses = 7637250
L2_total_cache_miss_rate = 0.3306
L2_total_cache_pending_hits = 13542
L2_total_cache_reservation_fails = 785308
L2_total_cache_breakdown:
	L2_cache_stats_breakdown[GLOBAL_ACC_R][HIT] = 1736559
	L2_cache_stats_breakdown[GLOBAL_ACC_R][HIT_RESERVED] = 13542
	L2_cache_stats_breakdown[GLOBAL_ACC_R][MISS] = 465585
	L2_cache_stats_breakdown[GLOBAL_ACC_R][RESERVATION_FAIL] = 785308
	L2_cache_stats_breakdown[GLOBAL_ACC_R][SECTOR_MISS] = 1396693
	L2_cache_stats_breakdown[LOCAL_ACC_R][HIT] = 0
	L2_cache_stats_breakdown[LOCAL_ACC_R][HIT_RESERVED] = 0
	L2_cache_stats_breakdown[LOCAL_ACC_R][MISS] = 0
	L2_cache_stats_breakdown[LOCAL_ACC_R][RESERVATION_FAIL] = 0
	L2_cache_stats_breakdown[LOCAL_ACC_R][SECTOR_MISS] = 0
	L2_cache_stats_breakdown[CONST_ACC_R][HIT] = 0
	L2_cache_stats_breakdown[CONST_ACC_R][HIT_RESERVED] = 0
	L2_cache_stats_breakdown[CONST_ACC_R][MISS] = 0
	L2_cache_stats_breakdown[CONST_ACC_R][RESERVATION_FAIL] = 0
	L2_cache_stats_breakdown[CONST_ACC_R][SECTOR_MISS] = 0
	L2_cache_stats_breakdown[TEXTURE_ACC_R][HIT] = 0
	L2_cache_stats_breakdown[TEXTURE_ACC_R][HIT_RESERVED] = 0
	L2_cache_stats_breakdown[TEXTURE_ACC_R][MISS] = 0
	L2_cache_stats_breakdown[TEXTURE_ACC_R][RESERVATION_FAIL] = 0
	L2_cache_stats_breakdown[TEXTURE_ACC_R][SECTOR_MISS] = 0
	L2_cache_stats_breakdown[GLOBAL_ACC_W][HIT] = 13713680
	L2_cache_stats_breakdown[GLOBAL_ACC_W][HIT_RESERVED] = 0
	L2_cache_stats_breakdown[GLOBAL_ACC_W][MISS] = 168106
	L2_cache_stats_breakdown[GLOBAL_ACC_W][RESERVATION_FAIL] = 0
	L2_cache_stats_breakdown[GLOBAL_ACC_W][SECTOR_MISS] = 5606866
	L2_cache_stats_breakdown[LOCAL_ACC_W][HIT] = 0
	L2_cache_stats_breakdown[LOCAL_ACC_W][HIT_RESERVED] = 0
	L2_cache_stats_breakdown[LOCAL_ACC_W][MISS] = 0
	L2_cache_stats_breakdown[LOCAL_ACC_W][RESERVATION_FAIL] = 0
	L2_cache_stats_breakdown[LOCAL_ACC_W][SECTOR_MISS] = 0
	L2_cache_stats_breakdown[L1_WRBK_ACC][HIT] = 0
	L2_cache_stats_breakdown[L1_WRBK_ACC][HIT_RESERVED] = 0
	L2_cache_stats_breakdown[L1_WRBK_ACC][MISS] = 0
	L2_cache_stats_breakdown[L1_WRBK_ACC][RESERVATION_FAIL] = 0
	L2_cache_stats_breakdown[L1_WRBK_ACC][SECTOR_MISS] = 0
	L2_cache_stats_breakdown[L2_WRBK_ACC][HIT] = 0
	L2_cache_stats_breakdown[L2_WRBK_ACC][HIT_RESERVED] = 0
	L2_cache_stats_breakdown[L2_WRBK_ACC][MISS] = 0
	L2_cache_stats_breakdown[L2_WRBK_ACC][RESERVATION_FAIL] = 0
	L2_cache_stats_breakdown[L2_WRBK_ACC][SECTOR_MISS] = 0
	L2_cache_stats_breakdown[INST_ACC_R][HIT] = 0
	L2_cache_stats_breakdown[INST_ACC_R][HIT_RESERVED] = 0
	L2_cache_stats_breakdown[INST_ACC_R][MISS] = 0
	L2_cache_stats_breakdown[INST_ACC_R][RESERVATION_FAIL] = 0
	L2_cache_stats_breakdown[INST_ACC_R][SECTOR_MISS] = 0
	L2_cache_stats_breakdown[L1_WR_ALLOC_R][HIT] = 0
	L2_cache_stats_breakdown[L1_WR_ALLOC_R][HIT_RESERVED] = 0
	L2_cache_stats_breakdown[L1_WR_ALLOC_R][MISS] = 0
	L2_cache_stats_breakdown[L1_WR_ALLOC_R][RESERVATION_FAIL] = 0
	L2_cache_stats_breakdown[L1_WR_ALLOC_R][SECTOR_MISS] = 0
	L2_cache_stats_breakdown[L2_WR_ALLOC_R][HIT] = 0
	L2_cache_stats_breakdown[L2_WR_ALLOC_R][HIT_RESERVED] = 0
	L2_cache_stats_breakdown[L2_WR_ALLOC_R][MISS] = 0
	L2_cache_stats_breakdown[L2_WR_ALLOC_R][RESERVATION_FAIL] = 0
	L2_cache_stats_breakdown[L2_WR_ALLOC_R][SECTOR_MISS] = 0
	L2_cache_stats_breakdown[GLOBAL_ACC_R][TOTAL_ACCESS] = 3612379
	L2_cache_stats_breakdown[GLOBAL_ACC_W][TOTAL_ACCESS] = 19488652
L2_total_cache_reservation_fail_breakdown:
	L2_cache_stats_fail_breakdown[GLOBAL_ACC_R][MSHR_ENRTY_FAIL] = 188457
	L2_cache_stats_fail_breakdown[GLOBAL_ACC_R][MSHR_MERGE_ENRTY_FAIL] = 596851
L2_cache_data_port_util = 0.187
L2_cache_fill_port_util = 0.021

icnt_total_pkts_mem_to_simt=29076839
icnt_total_pkts_simt_to_mem=29076839
LD_mem_lat_dist  0 0 0 0 0 0 0 0 0 0 0 0 0 0 0 0 0 0 0 0 0 0 0 0 0 0 0
ST_mem_lat_dist  0 0 0 0 0 0 0 0 0 0 0 0 0 0 0 0 0 0 0 0 0 0 0 0 0 0 0
----------------------------Interconnect-DETAILS--------------------------------
Req_Network_injected_packets_num = 29076839
Req_Network_cycles = 1407224
Req_Network_injected_packets_per_cycle =      20.6626 
Req_Network_conflicts_per_cycle =      22.7599
Req_Network_conflicts_per_cycle_util =      23.6263
Req_Bank_Level_Parallism =      21.4491
Req_Network_in_buffer_full_per_cycle =       6.7965
Req_Network_in_buffer_avg_util =     133.7937
Req_Network_out_buffer_full_per_cycle =       0.0454
Req_Network_out_buffer_avg_util =       4.1749

Reply_Network_injected_packets_num = 29076839
Reply_Network_cycles = 1407224
Reply_Network_injected_packets_per_cycle =       20.6626
Reply_Network_conflicts_per_cycle =       21.3764
Reply_Network_conflicts_per_cycle_util =      22.2007
Reply_Bank_Level_Parallism =      21.4593
Reply_Network_in_buffer_full_per_cycle =       0.0058
Reply_Network_in_buffer_avg_util =      30.6694
Reply_Network_out_buffer_full_per_cycle =       0.0000
Reply_Network_out_buffer_avg_util =       0.2583
----------------------------END-of-Interconnect-DETAILS-------------------------


gpgpu_simulation_time = 0 days, 4 hrs, 20 min, 53 sec (15653 sec)
gpgpu_simulation_rate = 246157 (inst/sec)
gpgpu_simulation_rate = 89 (cycle/sec)
gpgpu_silicon_slowdown = 12719101x
GPGPU-Sim: synchronize waiting for inactive GPU simulation
GPGPU-Sim API: Stream Manager State
GPGPU-Sim: detected inactive GPU simulation thread
GPGPU-Sim: *** exit detected ***
