

        *** GPGPU-Sim Simulator Version 4.0.0  [build gpgpu-sim_git-commit-_modified_0.0] ***


GPGPU-Sim PTX: simulation mode 0 (can change with PTX_SIM_MODE_FUNC environment variable:
               1=functional simulation only, 0=detailed performance simulator)
GPGPU-Sim PTX: overriding embedded ptx with ptx file (PTX_SIM_USE_PTX_FILE is set)
GPGPU-Sim: Configuration options:

-save_embedded_ptx                      0 # saves ptx files embedded in binary as <n>.ptx
-keep                                   0 # keep intermediate files created by GPGPU-Sim when interfacing with external programs
-gpgpu_ptx_save_converted_ptxplus                    0 # Saved converted ptxplus to a file
-gpgpu_occupancy_sm_number                   70 # The SM number to pass to ptxas when getting register usage for computing GPU occupancy. This parameter is required in the config.
-ptx_opcode_latency_int      4,13,4,5,145,21 # Opcode latencies for integers <ADD,MAX,MUL,MAD,DIV,SHFL>Default 1,1,19,25,145,32
-ptx_opcode_latency_fp          4,13,4,5,39 # Opcode latencies for single precision floating points <ADD,MAX,MUL,MAD,DIV>Default 1,1,1,1,30
-ptx_opcode_latency_dp         8,19,8,8,330 # Opcode latencies for double precision floating points <ADD,MAX,MUL,MAD,DIV>Default 8,8,8,8,335
-ptx_opcode_latency_sfu                  100 # Opcode latencies for SFU instructionsDefault 8
-ptx_opcode_latency_tesnor                   64 # Opcode latencies for Tensor instructionsDefault 64
-ptx_opcode_initiation_int          2,2,2,2,8,4 # Opcode initiation intervals for integers <ADD,MAX,MUL,MAD,DIV,SHFL>Default 1,1,4,4,32,4
-ptx_opcode_initiation_fp            2,2,2,2,4 # Opcode initiation intervals for single precision floating points <ADD,MAX,MUL,MAD,DIV>Default 1,1,1,1,5
-ptx_opcode_initiation_dp          4,4,4,4,130 # Opcode initiation intervals for double precision floating points <ADD,MAX,MUL,MAD,DIV>Default 8,8,8,8,130
-ptx_opcode_initiation_sfu                    8 # Opcode initiation intervals for sfu instructionsDefault 8
-ptx_opcode_initiation_tensor                   64 # Opcode initiation intervals for tensor instructionsDefault 64
-cdp_latency         7200,8000,100,12000,1600 # CDP API latency <cudaStreamCreateWithFlags, cudaGetParameterBufferV2_init_perWarp, cudaGetParameterBufferV2_perKernel, cudaLaunchDeviceV2_init_perWarp, cudaLaunchDevicV2_perKernel>Default 7200,8000,100,12000,1600
-network_mode                           2 # Interconnection network mode
-inter_config_file                   mesh # Interconnection network config file
-icnt_in_buffer_limit                  512 # in_buffer_limit
-icnt_out_buffer_limit                  512 # out_buffer_limit
-icnt_subnets                           2 # subnets
-icnt_arbiter_algo                      1 # arbiter_algo
-icnt_verbose                           0 # inct_verbose
-icnt_grant_cycles                      1 # grant_cycles
-gpgpu_ptx_use_cuobjdump                    1 # Use cuobjdump to extract ptx and sass from binaries
-gpgpu_experimental_lib_support                    0 # Try to extract code from cuda libraries [Broken because of unknown cudaGetExportTable]
-checkpoint_option                      0 #  checkpointing flag (0 = no checkpoint)
-checkpoint_kernel                      1 #  checkpointing during execution of which kernel (1- 1st kernel)
-checkpoint_CTA                         0 #  checkpointing after # of CTA (< less than total CTA)
-resume_option                          0 #  resume flag (0 = no resume)
-resume_kernel                          0 #  Resume from which kernel (1= 1st kernel)
-resume_CTA                             0 #  resume from which CTA 
-checkpoint_CTA_t                       0 #  resume from which CTA 
-checkpoint_insn_Y                      0 #  resume from which CTA 
-gpgpu_ptx_convert_to_ptxplus                    0 # Convert SASS (native ISA) to ptxplus and run ptxplus
-gpgpu_ptx_force_max_capability                   70 # Force maximum compute capability
-gpgpu_ptx_inst_debug_to_file                    0 # Dump executed instructions' debug information to file
-gpgpu_ptx_inst_debug_file       inst_debug.txt # Executed instructions' debug output file
-gpgpu_ptx_inst_debug_thread_uid                    1 # Thread UID for executed instructions' debug output
-gpgpu_n_mem_for_l2wb_pcommit                   32 # number of memory modules (e.g. memory controllers) in gpu
-gpgpu_n_sub_partition_per_mchannel_for_l2wb_pcommit                    2 # number of memory subpartition in each memory module
-gpgpu_dl2_bsize_for_l2wb_pcommit                  128 # default 128 bytes
-gpgpu_simd_model                       1 # 1 = post-dominator
-gpgpu_shader_core_pipeline              2048:32 # shader core pipeline config, i.e., {<nthread>:<warpsize>}
-gpgpu_tex_cache:l1  N:4:128:256,L:R:m:N:L,T:512:8,128:2 # per-shader L1 texture cache  (READ-ONLY) config  {<nsets>:<bsize>:<assoc>,<rep>:<wr>:<alloc>:<wr_alloc>,<mshr>:<N>:<merge>,<mq>:<rf>}
-gpgpu_const_cache:l1 N:128:64:8,L:R:f:N:L,S:2:64,4 # per-shader L1 constant memory cache  (READ-ONLY) config  {<nsets>:<bsize>:<assoc>,<rep>:<wr>:<alloc>:<wr_alloc>,<mshr>:<N>:<merge>,<mq>} 
-gpgpu_cache:il1     N:64:128:16,L:R:f:N:L,S:2:48,4 # shader L1 instruction cache config  {<nsets>:<bsize>:<assoc>,<rep>:<wr>:<alloc>:<wr_alloc>,<mshr>:<N>:<merge>,<mq>} 
-gpgpu_cache:dl1     S:1:128:256,L:L:s:N:L,A:256:8,16:0,32 # per-shader L1 data cache config  {<nsets>:<bsize>:<assoc>,<rep>:<wr>:<alloc>:<wr_alloc>,<mshr>:<N>:<merge>,<mq> | none}
-gpgpu_l1_banks                         4 # The number of L1 cache banks
-gpgpu_l1_banks_byte_interleaving                   32 # l1 banks byte interleaving granularity
-gpgpu_l1_banks_hashing_function                    0 # l1 banks hashing function
-gpgpu_l1_latency                      20 # L1 Hit Latency
-gpgpu_smem_latency                    20 # smem Latency
-gpgpu_cache:dl1PrefL1                 none # per-shader L1 data cache config  {<nsets>:<bsize>:<assoc>,<rep>:<wr>:<alloc>:<wr_alloc>,<mshr>:<N>:<merge>,<mq> | none}
-gpgpu_cache:dl1PrefShared                 none # per-shader L1 data cache config  {<nsets>:<bsize>:<assoc>,<rep>:<wr>:<alloc>:<wr_alloc>,<mshr>:<N>:<merge>,<mq> | none}
-gpgpu_gmem_skip_L1D                    0 # global memory access skip L1D cache (implements -Xptxas -dlcm=cg, default=no skip)
-gpgpu_perfect_mem                      0 # enable perfect memory mode (no cache miss)
-n_regfile_gating_group                    4 # group of lanes that should be read/written together)
-gpgpu_clock_gated_reg_file                    0 # enable clock gated reg file for power calculations
-gpgpu_clock_gated_lanes                    0 # enable clock gated lanes for power calculations
-gpgpu_shader_registers                65536 # Number of registers per shader core. Limits number of concurrent CTAs. (default 8192)
-gpgpu_registers_per_block                65536 # Maximum number of registers per CTA. (default 8192)
-gpgpu_ignore_resources_limitation                    0 # gpgpu_ignore_resources_limitation (default 0)
-gpgpu_shader_cta                      32 # Maximum number of concurrent CTAs in shader (default 8)
-gpgpu_num_cta_barriers                   16 # Maximum number of named barriers per CTA (default 16)
-gpgpu_n_clusters                      80 # number of processing clusters
-gpgpu_n_cores_per_cluster                    1 # number of simd cores per cluster
-gpgpu_n_cluster_ejection_buffer_size                   32 # number of packets in ejection buffer
-gpgpu_n_ldst_response_buffer_size                    2 # number of response packets in ld/st unit ejection buffer
-gpgpu_shmem_per_block                65536 # Size of shared memory per thread block or CTA (default 48kB)
-gpgpu_shmem_size                   98304 # Size of shared memory per shader core (default 16kB)
-gpgpu_adaptive_cache_config            536870913 # adaptive_cache_config
-gpgpu_shmem_sizeDefault                98304 # Size of shared memory per shader core (default 16kB)
-gpgpu_shmem_size_PrefL1                16384 # Size of shared memory per shader core (default 16kB)
-gpgpu_shmem_size_PrefShared                16384 # Size of shared memory per shader core (default 16kB)
-gpgpu_shmem_num_banks                   32 # Number of banks in the shared memory in each shader core (default 16)
-gpgpu_shmem_limited_broadcast                    0 # Limit shared memory to do one broadcast per cycle (default on)
-gpgpu_shmem_warp_parts                    1 # Number of portions a warp is divided into for shared memory bank conflict check 
-gpgpu_mem_unit_ports                    1 # The number of memory transactions allowed per core cycle
-gpgpu_shmem_warp_parts                    1 # Number of portions a warp is divided into for shared memory bank conflict check 
-gpgpu_warpdistro_shader                   -1 # Specify which shader core to collect the warp size distribution from
-gpgpu_warp_issue_shader                    0 # Specify which shader core to collect the warp issue distribution from
-gpgpu_local_mem_map                    1 # Mapping from local memory space address to simulated GPU physical address space (default = enabled)
-gpgpu_num_reg_banks                   16 # Number of register banks (default = 8)
-gpgpu_reg_bank_use_warp_id                    0 # Use warp ID in mapping registers to banks (default = off)
-gpgpu_sub_core_model                    1 # Sub Core Volta/Pascal model (default = off)
-gpgpu_enable_specialized_operand_collector                    0 # enable_specialized_operand_collector
-gpgpu_operand_collector_num_units_sp                    4 # number of collector units (default = 4)
-gpgpu_operand_collector_num_units_dp                    0 # number of collector units (default = 0)
-gpgpu_operand_collector_num_units_sfu                    4 # number of collector units (default = 4)
-gpgpu_operand_collector_num_units_int                    0 # number of collector units (default = 0)
-gpgpu_operand_collector_num_units_tensor_core                    4 # number of collector units (default = 4)
-gpgpu_operand_collector_num_units_mem                    2 # number of collector units (default = 2)
-gpgpu_operand_collector_num_units_gen                    8 # number of collector units (default = 0)
-gpgpu_operand_collector_num_in_ports_sp                    1 # number of collector unit in ports (default = 1)
-gpgpu_operand_collector_num_in_ports_dp                    0 # number of collector unit in ports (default = 0)
-gpgpu_operand_collector_num_in_ports_sfu                    1 # number of collector unit in ports (default = 1)
-gpgpu_operand_collector_num_in_ports_int                    0 # number of collector unit in ports (default = 0)
-gpgpu_operand_collector_num_in_ports_tensor_core                    1 # number of collector unit in ports (default = 1)
-gpgpu_operand_collector_num_in_ports_mem                    1 # number of collector unit in ports (default = 1)
-gpgpu_operand_collector_num_in_ports_gen                    8 # number of collector unit in ports (default = 0)
-gpgpu_operand_collector_num_out_ports_sp                    1 # number of collector unit in ports (default = 1)
-gpgpu_operand_collector_num_out_ports_dp                    0 # number of collector unit in ports (default = 0)
-gpgpu_operand_collector_num_out_ports_sfu                    1 # number of collector unit in ports (default = 1)
-gpgpu_operand_collector_num_out_ports_int                    0 # number of collector unit in ports (default = 0)
-gpgpu_operand_collector_num_out_ports_tensor_core                    1 # number of collector unit in ports (default = 1)
-gpgpu_operand_collector_num_out_ports_mem                    1 # number of collector unit in ports (default = 1)
-gpgpu_operand_collector_num_out_ports_gen                    8 # number of collector unit in ports (default = 0)
-gpgpu_coalesce_arch                   60 # Coalescing arch (GT200 = 13, Fermi = 20)
-gpgpu_num_sched_per_core                    4 # Number of warp schedulers per core
-gpgpu_max_insn_issue_per_warp                    1 # Max number of instructions that can be issued per warp in one cycle by scheduler (either 1 or 2)
-gpgpu_dual_issue_diff_exec_units                    1 # should dual issue use two different execution unit resources (Default = 1)
-gpgpu_simt_core_sim_order                    1 # Select the simulation order of cores in a cluster (0=Fix, 1=Round-Robin)
-gpgpu_pipeline_widths 4,4,4,4,4,4,4,4,4,4,8,4,4 # Pipeline widths ID_OC_SP,ID_OC_DP,ID_OC_INT,ID_OC_SFU,ID_OC_MEM,OC_EX_SP,OC_EX_DP,OC_EX_INT,OC_EX_SFU,OC_EX_MEM,EX_WB,ID_OC_TENSOR_CORE,OC_EX_TENSOR_CORE
-gpgpu_tensor_core_avail                    1 # Tensor Core Available (default=0)
-gpgpu_num_sp_units                     4 # Number of SP units (default=1)
-gpgpu_num_dp_units                     4 # Number of DP units (default=0)
-gpgpu_num_int_units                    4 # Number of INT units (default=0)
-gpgpu_num_sfu_units                    4 # Number of SF units (default=1)
-gpgpu_num_tensor_core_units                    4 # Number of tensor_core units (default=1)
-gpgpu_num_mem_units                    1 # Number if ldst units (default=1) WARNING: not hooked up to anything
-gpgpu_scheduler                      gto # Scheduler configuration: < lrr | gto | two_level_active > If two_level_active:<num_active_warps>:<inner_prioritization>:<outer_prioritization>For complete list of prioritization values see shader.h enum scheduler_prioritization_typeDefault: gto
-gpgpu_concurrent_kernel_sm                    0 # Support concurrent kernels on a SM (default = disabled)
-gpgpu_perfect_inst_const_cache                    1 # perfect inst and const cache mode, so all inst and const hits in the cache(default = disabled)
-gpgpu_inst_fetch_throughput                    4 # the number of fetched intruction per warp each cycle
-gpgpu_reg_file_port_throughput                    2 # the number ports of the register file
-specialized_unit_1         0,4,4,4,4,BRA # specialized unit config {<enabled>,<num_units>:<latency>:<initiation>,<ID_OC_SPEC>:<OC_EX_SPEC>,<NAME>}
-specialized_unit_2         0,4,4,4,4,BRA # specialized unit config {<enabled>,<num_units>:<latency>:<initiation>,<ID_OC_SPEC>:<OC_EX_SPEC>,<NAME>}
-specialized_unit_3         0,4,4,4,4,BRA # specialized unit config {<enabled>,<num_units>:<latency>:<initiation>,<ID_OC_SPEC>:<OC_EX_SPEC>,<NAME>}
-specialized_unit_4         0,4,4,4,4,BRA # specialized unit config {<enabled>,<num_units>:<latency>:<initiation>,<ID_OC_SPEC>:<OC_EX_SPEC>,<NAME>}
-specialized_unit_5         0,4,4,4,4,BRA # specialized unit config {<enabled>,<num_units>:<latency>:<initiation>,<ID_OC_SPEC>:<OC_EX_SPEC>,<NAME>}
-specialized_unit_6         0,4,4,4,4,BRA # specialized unit config {<enabled>,<num_units>:<latency>:<initiation>,<ID_OC_SPEC>:<OC_EX_SPEC>,<NAME>}
-specialized_unit_7         0,4,4,4,4,BRA # specialized unit config {<enabled>,<num_units>:<latency>:<initiation>,<ID_OC_SPEC>:<OC_EX_SPEC>,<NAME>}
-specialized_unit_8         0,4,4,4,4,BRA # specialized unit config {<enabled>,<num_units>:<latency>:<initiation>,<ID_OC_SPEC>:<OC_EX_SPEC>,<NAME>}
-gpgpu_perf_sim_memcpy                    1 # Fill the L2 cache on memcpy
-gpgpu_simple_dram_model                    0 # simple_dram_model with fixed latency and BW
-gpgpu_dram_scheduler                    1 # 0 = fifo, 1 = FR-FCFS (defaul)
-gpgpu_dram_partition_queues          64:64:64:64 # i2$:$2d:d2$:$2i
-l2_ideal                               0 # Use a ideal L2 cache that always hit
-gpgpu_cache:dl2     S:32:128:24,L:B:m:L:P,A:192:4,32:0,32 # unified banked L2 data cache config  {<nsets>:<bsize>:<assoc>,<rep>:<wr>:<alloc>:<wr_alloc>,<mshr>:<N>:<merge>,<mq>}
-gpgpu_cache:dl2_texture_only                    0 # L2 cache used for texture only
-gpgpu_n_mem                           32 # number of memory modules (e.g. memory controllers) in gpu
-gpgpu_n_sub_partition_per_mchannel                    2 # number of memory subpartition in each memory module
-gpgpu_n_mem_per_ctrlr                    1 # number of memory chips per memory controller
-gpgpu_memlatency_stat                   14 # track and display latency statistics 0x2 enables MC, 0x4 enables queue logs
-gpgpu_frfcfs_dram_sched_queue_size                   64 # 0 = unlimited (default); # entries per chip
-gpgpu_dram_return_queue_size                  192 # 0 = unlimited (default); # entries per chip
-gpgpu_dram_buswidth                   16 # default = 4 bytes (8 bytes per cycle at DDR)
-gpgpu_dram_burst_length                    2 # Burst length of each DRAM request (default = 4 data bus cycle)
-dram_data_command_freq_ratio                    2 # Frequency ratio between DRAM data bus and command bus (default = 2 times, i.e. DDR)
-gpgpu_dram_timing_opt nbk=16:CCD=1:RRD=3:RCD=12:RAS=28:RP=12:RC=40: CL=12:WL=2:CDLR=3:WR=10:nbkgrp=4:CCDL=2:RTPL=3 # DRAM timing parameters = {nbk:tCCD:tRRD:tRCD:tRAS:tRP:tRC:CL:WL:tCDLR:tWR:nbkgrp:tCCDL:tRTPL}
-gpgpu_l2_rop_latency                  160 # ROP queue latency (default 85)
-dram_latency                         200 # DRAM latency (default 30)
-dram_write_latency                   600 # DRAM write latency (default 100)
-dram_dual_bus_interface                    1 # dual_bus_interface (default = 0) 
-dram_bnk_indexing_policy                    0 # dram_bnk_indexing_policy (0 = normal indexing, 1 = Xoring with the higher bits) (Default = 0)
-dram_bnkgrp_indexing_policy                    1 # dram_bnkgrp_indexing_policy (0 = take higher bits, 1 = take lower bits) (Default = 0)
-dram_seperate_write_queue_enable                    0 # Seperate_Write_Queue_Enable
-dram_write_queue_size             32:28:16 # Write_Queue_Size
-dram_elimnate_rw_turnaround                    0 # elimnate_rw_turnaround i.e set tWTR and tRTW = 0
-icnt_flit_size                        40 # icnt_flit_size
-gpgpu_mem_addr_mapping dramid@8;00000000.00000000.00000000.00000000.0000RRRR.RRRRRRRR.RBBBCCCB.CCCSSSSS # mapping memory address to dram model {dramid@<start bit>;<memory address map>}
-gpgpu_mem_addr_test                    0 # run sweep test to check address mapping for aliased address
-gpgpu_mem_address_mask                    1 # 0 = old addressing mask, 1 = new addressing mask, 2 = new add. mask + flipped bank sel and chip sel bits
-gpgpu_memory_partition_indexing                    0 # 0 = no indexing, 1 = bitwise xoring, 2 = IPoly, 3 = custom indexing
-gpuwattch_xml_file         gpuwattch.xml # GPUWattch XML file
-power_simulation_enabled                    0 # Turn on power simulator (1=On, 0=Off)
-power_per_cycle_dump                    0 # Dump detailed power output each cycle
-power_trace_enabled                    0 # produce a file for the power trace (1=On, 0=Off)
-power_trace_zlevel                     6 # Compression level of the power trace output log (0=no comp, 9=highest)
-steady_power_levels_enabled                    0 # produce a file for the steady power levels (1=On, 0=Off)
-steady_state_definition                  8:4 # allowed deviation:number of samples
-gpgpu_max_cycle                        0 # terminates gpu simulation early (0 = no limit)
-gpgpu_max_insn                         0 # terminates gpu simulation early (0 = no limit)
-gpgpu_max_cta                          0 # terminates gpu simulation early (0 = no limit)
-gpgpu_max_completed_cta                    0 # terminates gpu simulation early (0 = no limit)
-gpgpu_runtime_stat                   500 # display runtime statistics such as dram utilization {<freq>:<flag>}
-liveness_message_freq                    1 # Minimum number of seconds between simulation liveness messages (0 = always print)
-gpgpu_compute_capability_major                    7 # Major compute capability version number
-gpgpu_compute_capability_minor                    0 # Minor compute capability version number
-gpgpu_flush_l1_cache                    1 # Flush L1 cache at the end of each kernel call
-gpgpu_flush_l2_cache                    0 # Flush L2 cache at the end of each kernel call
-gpgpu_deadlock_detect                    1 # Stop the simulation at deadlock (1=on (default), 0=off)
-gpgpu_ptx_instruction_classification                    0 # if enabled will classify ptx instruction types per kernel (Max 255 kernels now)
-gpgpu_ptx_sim_mode                     0 # Select between Performance (default) or Functional simulation (1)
-gpgpu_clock_domains 1132.0:1132.0:1132.0:850.0 # Clock Domain Frequencies in MhZ {<Core Clock>:<ICNT Clock>:<L2 Clock>:<DRAM Clock>}
-gpgpu_max_concurrent_kernel                    8 # maximum kernels that can run concurrently on GPU
-gpgpu_cflog_interval                    0 # Interval between each snapshot in control flow logger
-visualizer_enabled               bda44c4f09422c813e1bf137510a671e  /home/pli11/Desktop/re_test/ProgPow/ethash_calculate_dag_item/sp_wt/main
Extracting PTX file and ptxas options    1: main.1.sm_70.ptx -arch=sm_70
      0 # Turn on visualizer output (1=On, 0=Off)
-visualizer_outputfile                 NULL # Specifies the output log file for visualizer
-visualizer_zlevel                      6 # Compression level of the visualizer output log (0=no comp, 9=highest)
-gpgpu_stack_size_limit                 1024 # GPU thread stack size
-gpgpu_heap_size_limit              8388608 # GPU malloc heap size 
-gpgpu_runtime_sync_depth_limit                    2 # GPU device runtime synchronize depth
-gpgpu_runtime_pending_launch_count_limit                 2048 # GPU device runtime pending launch count
-trace_enabled                          0 # Turn on traces
-trace_components                    none # comma seperated list of traces to enable. Complete list found in trace_streams.tup. Default none
-trace_sampling_core                    0 # The core which is printed using CORE_DPRINTF. Default 0
-trace_sampling_memory_partition                   -1 # The memory partition which is printed using MEMPART_DPRINTF. Default -1 (i.e. all)
-enable_ptx_file_line_stats                    1 # Turn on PTX source line statistic profiling. (1 = On)
-ptx_line_stats_filename gpgpu_inst_stats.txt # Output file for PTX source line statistics.
-gpgpu_kernel_launch_latency                 5000 # Kernel launch latency in cycles. Default: 0
-gpgpu_cdp_enabled                      0 # Turn on CDP
-gpgpu_TB_launch_latency                    0 # thread block launch latency in cycles. Default: 0
DRAM Timing Options:
nbk                                    16 # number of banks
CCD                                     1 # column to column delay
RRD                                     3 # minimal delay between activation of rows in different banks
RCD                                    12 # row to column delay
RAS                                    28 # time needed to activate row
RP                                     12 # time needed to precharge (deactivate) row
RC                                     40 # row cycle time
CDLR                                    3 # switching from write to read (changes tWTR)
WR                                     10 # last data-in to row precharge
CL                                     12 # CAS latency
WL                                      2 # Write latency
nbkgrp                                  4 # number of bank groups
CCDL                                    2 # column to column delay between accesses to different bank groups
RTPL                                    3 # read to precharge delay between accesses to different bank groups
Total number of memory sub partition = 64
addr_dec_mask[CHIP]  = 0000000000001f00 	high:13 low:8
addr_dec_mask[BK]    = 00000000000e2000 	high:20 low:13
addr_dec_mask[ROW]   = 00000001fff00000 	high:33 low:20
addr_dec_mask[COL]   = 000000000001c0ff 	high:17 low:0
addr_dec_mask[BURST] = 000000000000001f 	high:5 low:0
sub_partition_id_mask = 0000000000002000
GPGPU-Sim uArch: clock freqs: 1132000000.000000:1132000000.000000:1132000000.000000:850000000.000000
GPGPU-Sim uArch: clock periods: 0.00000000088339222615:0.00000000088339222615:0.00000000088339222615:0.00000000117647058824
*** Initializing Memory Statistics ***
GPGPU-Sim uArch: performance model initialization complete.
self exe links to: /home/pli11/Desktop/re_test/ProgPow/ethash_calculate_dag_item/sp_wt/main
self exe links to: /home/pli11/Desktop/re_test/ProgPow/ethash_calculate_dag_item/sp_wt/main
10.1
GPGPU-Sim PTX: __cudaRegisterFatBinary, fat_cubin_handle = 1, filename=default
self exe links to: /home/pli11/Desktop/re_test/ProgPow/ethash_calculate_dag_item/sp_wt/main
Running md5sum using "md5sum /home/pli11/Desktop/re_test/ProgPow/ethash_calculate_dag_item/sp_wt/main "
self exe links to: /home/pli11/Desktop/re_test/ProgPow/ethash_calculate_dag_item/sp_wt/main
Extracting specific PTX file named main.1.sm_70.ptx 
GPGPU-Sim PTX: __cudaRegisterFunction _Z25ethash_calculate_dag_itemjP8hash64_tmS0_j : hostFun 0x0x4123e6, fat_cubin_handle = 1
GPGPU-Sim PTX: Parsing main.1.sm_70.ptx
GPGPU-Sim PTX: allocating constant region for "keccakf_rndc" from 0x100 to 0x1c0 (global memory space) 1
GPGPU-Sim PTX: instruction assembly for function '_Z25ethash_calculate_dag_itemjP8hash64_tmS0_j'...   done.
GPGPU-Sim PTX: finished parsing EMBEDDED .ptx file main.1.sm_70.ptx
GPGPU-Sim PTX: loading globals with explicit initializers... 
GPGPU-Sim PTX: finished loading globals (0 bytes total).
GPGPU-Sim PTX: loading constants with explicit initializers...  done.
GPGPU-Sim PTX: Loading PTXInfo from main.1.sm_70.ptx
GPGPU-Sim PTX: Binary info : gmem=0, cmem=192
GPGPU-Sim PTX: Kernel '_Z25ethash_calculate_dag_itemjP8hash64_tmS0_j' : regs=80, lmem=0, smem=0, cmem=388
GPGPU-Sim PTX: __cudaRegisterVar: hostVar = 0x41c440; deviceAddress = keccakf_rndc; deviceName = keccakf_rndc
GPGPU-Sim PTX: __cudaRegisterVar: Registering const memory space of 192 bytes
GPGPU-Sim PTX registering constant keccakf_rndc (192 bytes) to name mapping
Set Device to current
Resetting device
Allocating light with size: 16907456
Generating mining buffers
GPGPU-Sim PTX: cudaStreamCreate
GPGPU-Sim PTX: cudaStreamCreate
Generating DAG for GPU #0 with dagBytes: 1082130304 gridSize: 4
fullRuns=16512
GPGPU-Sim PTX: Setting up arguments for 4 bytes starting at 0x7ffc8a11f21c..
GPGPU-Sim PTX: Setting up arguments for 8 bytes starting at 0x7ffc8a11f210..
GPGPU-Sim PTX: Setting up arguments for 8 bytes starting at 0x7ffc8a11f208..
GPGPU-Sim PTX: Setting up arguments for 8 bytes starting at 0x7ffc8a11f200..
GPGPU-Sim PTX: Setting up arguments for 4 bytes starting at 0x7ffc8a11f218..

GPGPU-Sim PTX: cudaLaunch for 0x0x4123e6 (mode=performance simulation) on stream 1
GPGPU-Sim PTX: finding reconvergence points for '_Z25ethash_calculate_dag_itemjP8hash64_tmS0_j'...
GPGPU-Sim PTX: Finding dominators for '_Z25ethash_calculate_dag_itemjP8hash64_tmS0_j'...
GPGPU-Sim PTX: Finding immediate dominators for '_Z25ethash_calculate_dag_itemjP8hash64_tmS0_j'...
GPGPU-Sim PTX: Finding postdominators for '_Z25ethash_calculate_dag_itemjP8hash64_tmS0_j'...
GPGPU-Sim PTX: Finding immediate postdominators for '_Z25ethash_calculate_dag_itemjP8hash64_tmS0_j'...
GPGPU-Sim PTX: pre-decoding instructions for '_Z25ethash_calculate_dag_itemjP8hash64_tmS0_j'...
GPGPU-Sim PTX: reconvergence points for _Z25ethash_calculate_dag_itemjP8hash64_tmS0_j...
GPGPU-Sim PTX:  1 (potential) branch divergence @  PC=0x080 (main.1.sm_70.ptx:45) @%p4101 bra BB0_2576;
GPGPU-Sim PTX:    immediate post dominator      @  PC=0x2b970 (main.1.sm_70.ptx:26649) ret;
GPGPU-Sim PTX:  2 (potential) branch divergence @  PC=0x0a0 (main.1.sm_70.ptx:50) @%p4102 bra BB0_3;
GPGPU-Sim PTX:    immediate post dominator      @  PC=0x0d8 (main.1.sm_70.ptx:62) shl.b64 %rd6294, %rd7640, 6;
GPGPU-Sim PTX:  3 (potential) branch divergence @  PC=0x0b0 (main.1.sm_70.ptx:53) bra.uni BB0_4;
GPGPU-Sim PTX:    immediate post dominator      @  PC=0x0d8 (main.1.sm_70.ptx:62) shl.b64 %rd6294, %rd7640, 6;
GPGPU-Sim PTX:  4 (potential) branch divergence @  PC=0xa68 (main.1.sm_70.ptx:573) @%p4103 bra BB0_5;
GPGPU-Sim PTX:    immediate post dominator      @  PC=0xa70 (main.1.sm_70.ptx:575) mov.u32 %r24671, %tid.x;
GPGPU-Sim PTX:  5 (potential) branch divergence @  PC=0xb20 (main.1.sm_70.ptx:599) @%p4105 bra BB0_9;
GPGPU-Sim PTX:    immediate post dominator      @  PC=0xb88 (main.1.sm_70.ptx:615) shfl.sync.idx.b32 %r15|%p5, %r6070, %r6037, %r6067, %r6068;
GPGPU-Sim PTX:  6 (potential) branch divergence @  PC=0xba8 (main.1.sm_70.ptx:619) @%p4105 bra BB0_11;
GPGPU-Sim PTX:    immediate post dominator      @  PC=0xc10 (main.1.sm_70.ptx:635) shfl.sync.idx.b32 %r19|%p9, %r6070, %r6047, %r6067, %r6068;
GPGPU-Sim PTX:  7 (potential) branch divergence @  PC=0xc30 (main.1.sm_70.ptx:639) @%p4105 bra BB0_13;
GPGPU-Sim PTX:    immediate post dominator      @  PC=0xc98 (main.1.sm_70.ptx:655) shfl.sync.idx.b32 %r23|%p13, %r6070, %r6038, %r6067, %r6068;
GPGPU-Sim PTX:  8 (potential) branch divergence @  PC=0xcb8 (main.1.sm_70.ptx:659) @%p4105 bra BB0_15;
GPGPU-Sim PTX:    immediate post dominator      @  PC=0xd20 (main.1.sm_70.ptx:675) add.s32 %r24694, %r24694, 1;
GPGPU-Sim PTX:  9 (potential) branch divergence @  PC=0xd30 (main.1.sm_70.ptx:677) @%p4109 bra BB0_7;
GPGPU-Sim PTX:    immediate post dominator      @  PC=0xd38 (main.1.sm_70.ptx:679) xor.b32 %r6133, %r6029, 1;
GPGPU-Sim PTX: 10 (potential) branch divergence @  PC=0xdc0 (main.1.sm_70.ptx:698) @%p4111 bra BB0_19;
GPGPU-Sim PTX:    immediate post dominator      @  PC=0xe28 (main.1.sm_70.ptx:714) shfl.sync.idx.b32 %r38|%p21, %r6142, %r6037, %r6067, %r6068;
GPGPU-Sim PTX: 11 (potential) branch divergence @  PC=0xe48 (main.1.sm_70.ptx:718) @%p4111 bra BB0_21;
GPGPU-Sim PTX:    immediate post dominator      @  PC=0xeb0 (main.1.sm_70.ptx:734) shfl.sync.idx.b32 %r42|%p25, %r6142, %r6047, %r6067, %r6068;
GPGPU-Sim PTX: 12 (potential) branch divergence @  PC=0xed0 (main.1.sm_70.ptx:738) @%p4111 bra BB0_23;
GPGPU-Sim PTX:    immediate post dominator      @  PC=0xf38 (main.1.sm_70.ptx:754) shfl.sync.idx.b32 %r46|%p29, %r6142, %r6038, %r6067, %r6068;
GPGPU-Sim PTX: 13 (potential) branch divergence @  PC=0xf58 (main.1.sm_70.ptx:758) @%p4111 bra BB0_25;
GPGPU-Sim PTX:    immediate post dominator      @  PC=0xfc0 (main.1.sm_70.ptx:774) add.s32 %r24695, %r24695, 1;
GPGPU-Sim PTX: 14 (potential) branch divergence @  PC=0xfd0 (main.1.sm_70.ptx:776) @%p4115 bra BB0_17;
GPGPU-Sim PTX:    immediate post dominator      @  PC=0xfd8 (main.1.sm_70.ptx:778) xor.b32 %r6205, %r6029, 2;
GPGPU-Sim PTX: 15 (potential) branch divergence @  PC=0x1060 (main.1.sm_70.ptx:797) @%p4117 bra BB0_29;
GPGPU-Sim PTX:    immediate post dominator      @  PC=0x10c8 (main.1.sm_70.ptx:813) shfl.sync.idx.b32 %r61|%p37, %r6214, %r6037, %r6067, %r6068;
GPGPU-Sim PTX: 16 (potential) branch divergence @  PC=0x10e8 (main.1.sm_70.ptx:817) @%p4117 bra BB0_31;
GPGPU-Sim PTX:    immediate post dominator      @  PC=0x1150 (main.1.sm_70.ptx:833) shfl.sync.idx.b32 %r65|%p41, %r6214, %r6047, %r6067, %r6068;
GPGPU-Sim PTX: 17 (potential) branch divergence @  PC=0x1170 (main.1.sm_70.ptx:837) @%p4117 bra BB0_33;
GPGPU-Sim PTX:    immediate post dominator      @  PC=0x11d8 (main.1.sm_70.ptx:853) shfl.sync.idx.b32 %r69|%p45, %r6214, %r6038, %r6067, %r6068;
GPGPU-Sim PTX: 18 (potential) branch divergence @  PC=0x11f8 (main.1.sm_70.ptx:857) @%p4117 bra BB0_35;
GPGPU-Sim PTX:    immediate post dominator      @  PC=0x1260 (main.1.sm_70.ptx:873) add.s32 %r24696, %r24696, 1;
GPGPU-Sim PTX: 19 (potential) branch divergence @  PC=0x1270 (main.1.sm_70.ptx:875) @%p4121 bra BB0_27;
GPGPU-Sim PTX:    immediate post dominator      @  PC=0x1278 (main.1.sm_70.ptx:877) xor.b32 %r6277, %r6029, 3;
GPGPU-Sim PTX: 20 (potential) branch divergence @  PC=0x1300 (main.1.sm_70.ptx:896) @%p4123 bra BB0_39;
GPGPU-Sim PTX:    immediate post dominator      @  PC=0x1368 (main.1.sm_70.ptx:912) shfl.sync.idx.b32 %r84|%p53, %r6286, %r6037, %r6067, %r6068;
GPGPU-Sim PTX: 21 (potential) branch divergence @  PC=0x1388 (main.1.sm_70.ptx:916) @%p4123 bra BB0_41;
GPGPU-Sim PTX:    immediate post dominator      @  PC=0x13f0 (main.1.sm_70.ptx:932) shfl.sync.idx.b32 %r88|%p57, %r6286, %r6047, %r6067, %r6068;
GPGPU-Sim PTX: 22 (potential) branch divergence @  PC=0x1410 (main.1.sm_70.ptx:936) @%p4123 bra BB0_43;
GPGPU-Sim PTX:    immediate post dominator      @  PC=0x1478 (main.1.sm_70.ptx:952) shfl.sync.idx.b32 %r92|%p61, %r6286, %r6038, %r6067, %r6068;
GPGPU-Sim PTX: 23 (potential) branch divergence @  PC=0x1498 (main.1.sm_70.ptx:956) @%p4123 bra BB0_45;
GPGPU-Sim PTX:    immediate post dominator      @  PC=0x1500 (main.1.sm_70.ptx:972) add.s32 %r24697, %r24697, 1;
GPGPU-Sim PTX: 24 (potential) branch divergence @  PC=0x1510 (main.1.sm_70.ptx:974) @%p4127 bra BB0_37;
GPGPU-Sim PTX:    immediate post dominator      @  PC=0x1518 (main.1.sm_70.ptx:976) xor.b32 %r6349, %r6029, 4;
GPGPU-Sim PTX: 25 (potential) branch divergence @  PC=0x15a0 (main.1.sm_70.ptx:995) @%p4129 bra BB0_49;
GPGPU-Sim PTX:    immediate post dominator      @  PC=0x1608 (main.1.sm_70.ptx:1011) shfl.sync.idx.b32 %r107|%p69, %r6358, %r6037, %r6067, %r6068;
GPGPU-Sim PTX: 26 (potential) branch divergence @  PC=0x1628 (main.1.sm_70.ptx:1015) @%p4129 bra BB0_51;
GPGPU-Sim PTX:    immediate post dominator      @  PC=0x1690 (main.1.sm_70.ptx:1031) shfl.sync.idx.b32 %r111|%p73, %r6358, %r6047, %r6067, %r6068;
GPGPU-Sim PTX: 27 (potential) branch divergence @  PC=0x16b0 (main.1.sm_70.ptx:1035) @%p4129 bra BB0_53;
GPGPU-Sim PTX:    immediate post dominator      @  PC=0x1718 (main.1.sm_70.ptx:1051) shfl.sync.idx.b32 %r115|%p77, %r6358, %r6038, %r6067, %r6068;
GPGPU-Sim PTX: 28 (potential) branch divergence @  PC=0x1738 (main.1.sm_70.ptx:1055) @%p4129 bra BB0_55;
GPGPU-Sim PTX:    immediate post dominator      @  PC=0x17a0 (main.1.sm_70.ptx:1071) add.s32 %r24698, %r24698, 1;
GPGPU-Sim PTX: 29 (potential) branch divergence @  PC=0x17b0 (main.1.sm_70.ptx:1073) @%p4133 bra BB0_47;
GPGPU-Sim PTX:    immediate post dominator      @  PC=0x17b8 (main.1.sm_70.ptx:1075) xor.b32 %r6421, %r6029, 5;
GPGPU-Sim PTX: 30 (potential) branch divergence @  PC=0x1840 (main.1.sm_70.ptx:1094) @%p4135 bra BB0_59;
GPGPU-Sim PTX:    immediate post dominator      @  PC=0x18a8 (main.1.sm_70.ptx:1110) shfl.sync.idx.b32 %r130|%p85, %r6430, %r6037, %r6067, %r6068;
GPGPU-Sim PTX: 31 (potential) branch divergence @  PC=0x18c8 (main.1.sm_70.ptx:1114) @%p4135 bra BB0_61;
GPGPU-Sim PTX:    immediate post dominator      @  PC=0x1930 (main.1.sm_70.ptx:1130) shfl.sync.idx.b32 %r134|%p89, %r6430, %r6047, %r6067, %r6068;
GPGPU-Sim PTX: 32 (potential) branch divergence @  PC=0x1950 (main.1.sm_70.ptx:1134) @%p4135 bra BB0_63;
GPGPU-Sim PTX:    immediate post dominator      @  PC=0x19b8 (main.1.sm_70.ptx:1150) shfl.sync.idx.b32 %r138|%p93, %r6430, %r6038, %r6067, %r6068;
GPGPU-Sim PTX: 33 (potential) branch divergence @  PC=0x19d8 (main.1.sm_70.ptx:1154) @%p4135 bra BB0_65;
GPGPU-Sim PTX:    immediate post dominator      @  PC=0x1a40 (main.1.sm_70.ptx:1170) add.s32 %r24699, %r24699, 1;
GPGPU-Sim PTX: 34 (potential) branch divergence @  PC=0x1a50 (main.1.sm_70.ptx:1172) @%p4139 bra BB0_57;
GPGPU-Sim PTX:    immediate post dominator      @  PC=0x1a58 (main.1.sm_70.ptx:1174) xor.b32 %r6493, %r6029, 6;
GPGPU-Sim PTX: 35 (potential) branch divergence @  PC=0x1ae0 (main.1.sm_70.ptx:1193) @%p4141 bra BB0_69;
GPGPU-Sim PTX:    immediate post dominator      @  PC=0x1b48 (main.1.sm_70.ptx:1209) shfl.sync.idx.b32 %r153|%p101, %r6502, %r6037, %r6067, %r6068;
GPGPU-Sim PTX: 36 (potential) branch divergence @  PC=0x1b68 (main.1.sm_70.ptx:1213) @%p4141 bra BB0_71;
GPGPU-Sim PTX:    immediate post dominator      @  PC=0x1bd0 (main.1.sm_70.ptx:1229) shfl.sync.idx.b32 %r157|%p105, %r6502, %r6047, %r6067, %r6068;
GPGPU-Sim PTX: 37 (potential) branch divergence @  PC=0x1bf0 (main.1.sm_70.ptx:1233) @%p4141 bra BB0_73;
GPGPU-Sim PTX:    immediate post dominator      @  PC=0x1c58 (main.1.sm_70.ptx:1249) shfl.sync.idx.b32 %r161|%p109, %r6502, %r6038, %r6067, %r6068;
GPGPU-Sim PTX: 38 (potential) branch divergence @  PC=0x1c78 (main.1.sm_70.ptx:1253) @%p4141 bra BB0_75;
GPGPU-Sim PTX:    immediate post dominator      @  PC=0x1ce0 (main.1.sm_70.ptx:1269) add.s32 %r24700, %r24700, 1;
GPGPU-Sim PTX: 39 (potential) branch divergence @  PC=0x1cf0 (main.1.sm_70.ptx:1271) @%p4145 bra BB0_67;
GPGPU-Sim PTX:    immediate post dominator      @  PC=0x1cf8 (main.1.sm_70.ptx:1273) xor.b32 %r6565, %r6029, 7;
GPGPU-Sim PTX: 40 (potential) branch divergence @  PC=0x1d80 (main.1.sm_70.ptx:1292) @%p4147 bra BB0_79;
GPGPU-Sim PTX:    immediate post dominator      @  PC=0x1de8 (main.1.sm_70.ptx:1308) shfl.sync.idx.b32 %r176|%p117, %r6574, %r6037, %r6067, %r6068;
GPGPU-Sim PTX: 41 (potential) branch divergence @  PC=0x1e08 (main.1.sm_70.ptx:1312) @%p4147 bra BB0_81;
GPGPU-Sim PTX:    immediate post dominator      @  PC=0x1e70 (main.1.sm_70.ptx:1328) shfl.sync.idx.b32 %r180|%p121, %r6574, %r6047, %r6067, %r6068;
GPGPU-Sim PTX: 42 (potential) branch divergence @  PC=0x1e90 (main.1.sm_70.ptx:1332) @%p4147 bra BB0_83;
GPGPU-Sim PTX:    immediate post dominator      @  PC=0x1ef8 (main.1.sm_70.ptx:1348) shfl.sync.idx.b32 %r184|%p125, %r6574, %r6038, %r6067, %r6068;
GPGPU-Sim PTX: 43 (potential) branch divergence @  PC=0x1f18 (main.1.sm_70.ptx:1352) @%p4147 bra BB0_85;
GPGPU-Sim PTX:    immediate post dominator      @  PC=0x1f80 (main.1.sm_70.ptx:1368) add.s32 %r24701, %r24701, 1;
GPGPU-Sim PTX: 44 (potential) branch divergence @  PC=0x1f90 (main.1.sm_70.ptx:1370) @%p4151 bra BB0_77;
GPGPU-Sim PTX:    immediate post dominator      @  PC=0x1f98 (main.1.sm_70.ptx:1372) xor.b32 %r6637, %r6029, 8;
GPGPU-Sim PTX: 45 (potential) branch divergence @  PC=0x2020 (main.1.sm_70.ptx:1391) @%p4153 bra BB0_89;
GPGPU-Sim PTX:    immediate post dominator      @  PC=0x2088 (main.1.sm_70.ptx:1407) shfl.sync.idx.b32 %r199|%p133, %r6646, %r6037, %r6067, %r6068;
GPGPU-Sim PTX: 46 (potential) branch divergence @  PC=0x20a8 (main.1.sm_70.ptx:1411) @%p4153 bra BB0_91;
GPGPU-Sim PTX:    immediate post dominator      @  PC=0x2110 (main.1.sm_70.ptx:1427) shfl.sync.idx.b32 %r203|%p137, %r6646, %r6047, %r6067, %r6068;
GPGPU-Sim PTX: 47 (potential) branch divergence @  PC=0x2130 (main.1.sm_70.ptx:1431) @%p4153 bra BB0_93;
GPGPU-Sim PTX:    immediate post dominator      @  PC=0x2198 (main.1.sm_70.ptx:1447) shfl.sync.idx.b32 %r207|%p141, %r6646, %r6038, %r6067, %r6068;
GPGPU-Sim PTX: 48 (potential) branch divergence @  PC=0x21b8 (main.1.sm_70.ptx:1451) @%p4153 bra BB0_95;
GPGPU-Sim PTX:    immediate post dominator      @  PC=0x2220 (main.1.sm_70.ptx:1467) add.s32 %r24702, %r24702, 1;
GPGPU-Sim PTX: 49 (potential) branch divergence @  PC=0x2230 (main.1.sm_70.ptx:1469) @%p4157 bra BB0_87;
GPGPU-Sim PTX:    immediate post dominator      @  PC=0x2238 (main.1.sm_70.ptx:1471) xor.b32 %r6709, %r6029, 9;
GPGPU-Sim PTX: 50 (potential) branch divergence @  PC=0x22c0 (main.1.sm_70.ptx:1490) @%p4159 bra BB0_99;
GPGPU-Sim PTX:    immediate post dominator      @  PC=0x2328 (main.1.sm_70.ptx:1506) shfl.sync.idx.b32 %r222|%p149, %r6718, %r6037, %r6067, %r6068;
GPGPU-Sim PTX: 51 (potential) branch divergence @  PC=0x2348 (main.1.sm_70.ptx:1510) @%p4159 bra BB0_101;
GPGPU-Sim PTX:    immediate post dominator      @  PC=0x23b0 (main.1.sm_70.ptx:1526) shfl.sync.idx.b32 %r226|%p153, %r6718, %r6047, %r6067, %r6068;
GPGPU-Sim PTX: 52 (potential) branch divergence @  PC=0x23d0 (main.1.sm_70.ptx:1530) @%p4159 bra BB0_103;
GPGPU-Sim PTX:    immediate post dominator      @  PC=0x2438 (main.1.sm_70.ptx:1546) shfl.sync.idx.b32 %r230|%p157, %r6718, %r6038, %r6067, %r6068;
GPGPU-Sim PTX: 53 (potential) branch divergence @  PC=0x2458 (main.1.sm_70.ptx:1550) @%p4159 bra BB0_105;
GPGPU-Sim PTX:    immediate post dominator      @  PC=0x24c0 (main.1.sm_70.ptx:1566) add.s32 %r24703, %r24703, 1;
GPGPU-Sim PTX: 54 (potential) branch divergence @  PC=0x24d0 (main.1.sm_70.ptx:1568) @%p4163 bra BB0_97;
GPGPU-Sim PTX:    immediate post dominator      @  PC=0x24d8 (main.1.sm_70.ptx:1570) xor.b32 %r6781, %r6029, 10;
GPGPU-Sim PTX: 55 (potential) branch divergence @  PC=0x2560 (main.1.sm_70.ptx:1589) @%p4165 bra BB0_109;
GPGPU-Sim PTX:    immediate post dominator      @  PC=0x25c8 (main.1.sm_70.ptx:1605) shfl.sync.idx.b32 %r245|%p165, %r6790, %r6037, %r6067, %r6068;
GPGPU-Sim PTX: 56 (potential) branch divergence @  PC=0x25e8 (main.1.sm_70.ptx:1609) @%p4165 bra BB0_111;
GPGPU-Sim PTX:    immediate post dominator      @  PC=0x2650 (main.1.sm_70.ptx:1625) shfl.sync.idx.b32 %r249|%p169, %r6790, %r6047, %r6067, %r6068;
GPGPU-Sim PTX: 57 (potential) branch divergence @  PC=0x2670 (main.1.sm_70.ptx:1629) @%p4165 bra BB0_113;
GPGPU-Sim PTX:    immediate post dominator      @  PC=0x26d8 (main.1.sm_70.ptx:1645) shfl.sync.idx.b32 %r253|%p173, %r6790, %r6038, %r6067, %r6068;
GPGPU-Sim PTX: 58 (potential) branch divergence @  PC=0x26f8 (main.1.sm_70.ptx:1649) @%p4165 bra BB0_115;
GPGPU-Sim PTX:    immediate post dominator      @  PC=0x2760 (main.1.sm_70.ptx:1665) add.s32 %r24704, %r24704, 1;
GPGPU-Sim PTX: 59 (potential) branch divergence @  PC=0x2770 (main.1.sm_70.ptx:1667) @%p4169 bra BB0_107;
GPGPU-Sim PTX:    immediate post dominator      @  PC=0x2778 (main.1.sm_70.ptx:1669) xor.b32 %r6853, %r6029, 11;
GPGPU-Sim PTX: 60 (potential) branch divergence @  PC=0x2800 (main.1.sm_70.ptx:1688) @%p4171 bra BB0_119;
GPGPU-Sim PTX:    immediate post dominator      @  PC=0x2868 (main.1.sm_70.ptx:1704) shfl.sync.idx.b32 %r268|%p181, %r6862, %r6037, %r6067, %r6068;
GPGPU-Sim PTX: 61 (potential) branch divergence @  PC=0x2888 (main.1.sm_70.ptx:1708) @%p4171 bra BB0_121;
GPGPU-Sim PTX:    immediate post dominator      @  PC=0x28f0 (main.1.sm_70.ptx:1724) shfl.sync.idx.b32 %r272|%p185, %r6862, %r6047, %r6067, %r6068;
GPGPU-Sim PTX: 62 (potential) branch divergence @  PC=0x2910 (main.1.sm_70.ptx:1728) @%p4171 bra BB0_123;
GPGPU-Sim PTX:    immediate post dominator      @  PC=0x2978 (main.1.sm_70.ptx:1744) shfl.sync.idx.b32 %r276|%p189, %r6862, %r6038, %r6067, %r6068;
GPGPU-Sim PTX: 63 (potential) branch divergence @  PC=0x2998 (main.1.sm_70.ptx:1748) @%p4171 bra BB0_125;
GPGPU-Sim PTX:    immediate post dominator      @  PC=0x2a00 (main.1.sm_70.ptx:1764) add.s32 %r24705, %r24705, 1;
GPGPU-Sim PTX: 64 (potential) branch divergence @  PC=0x2a10 (main.1.sm_70.ptx:1766) @%p4175 bra BB0_117;
GPGPU-Sim PTX:    immediate post dominator      @  PC=0x2a18 (main.1.sm_70.ptx:1768) xor.b32 %r6925, %r6029, 12;
GPGPU-Sim PTX: 65 (potential) branch divergence @  PC=0x2aa0 (main.1.sm_70.ptx:1787) @%p4177 bra BB0_129;
GPGPU-Sim PTX:    immediate post dominator      @  PC=0x2b08 (main.1.sm_70.ptx:1803) shfl.sync.idx.b32 %r291|%p197, %r6934, %r6037, %r6067, %r6068;
GPGPU-Sim PTX: 66 (potential) branch divergence @  PC=0x2b28 (main.1.sm_70.ptx:1807) @%p4177 bra BB0_131;
GPGPU-Sim PTX:    immediate post dominator      @  PC=0x2b90 (main.1.sm_70.ptx:1823) shfl.sync.idx.b32 %r295|%p201, %r6934, %r6047, %r6067, %r6068;
GPGPU-Sim PTX: 67 (potential) branch divergence @  PC=0x2bb0 (main.1.sm_70.ptx:1827) @%p4177 bra BB0_133;
GPGPU-Sim PTX:    immediate post dominator      @  PC=0x2c18 (main.1.sm_70.ptx:1843) shfl.sync.idx.b32 %r299|%p205, %r6934, %r6038, %r6067, %r6068;
GPGPU-Sim PTX: 68 (potential) branch divergence @  PC=0x2c38 (main.1.sm_70.ptx:1847) @%p4177 bra BB0_135;
GPGPU-Sim PTX:    immediate post dominator      @  PC=0x2ca0 (main.1.sm_70.ptx:1863) add.s32 %r24706, %r24706, 1;
GPGPU-Sim PTX: 69 (potential) branch divergence @  PC=0x2cb0 (main.1.sm_70.ptx:1865) @%p4181 bra BB0_127;
GPGPU-Sim PTX:    immediate post dominator      @  PC=0x2cb8 (main.1.sm_70.ptx:1867) xor.b32 %r6997, %r6029, 13;
GPGPU-Sim PTX: 70 (potential) branch divergence @  PC=0x2d40 (main.1.sm_70.ptx:1886) @%p4183 bra BB0_139;
GPGPU-Sim PTX:    immediate post dominator      @  PC=0x2da8 (main.1.sm_70.ptx:1902) shfl.sync.idx.b32 %r314|%p213, %r7006, %r6037, %r6067, %r6068;
GPGPU-Sim PTX: 71 (potential) branch divergence @  PC=0x2dc8 (main.1.sm_70.ptx:1906) @%p4183 bra BB0_141;
GPGPU-Sim PTX:    immediate post dominator      @  PC=0x2e30 (main.1.sm_70.ptx:1922) shfl.sync.idx.b32 %r318|%p217, %r7006, %r6047, %r6067, %r6068;
GPGPU-Sim PTX: 72 (potential) branch divergence @  PC=0x2e50 (main.1.sm_70.ptx:1926) @%p4183 bra BB0_143;
GPGPU-Sim PTX:    immediate post dominator      @  PC=0x2eb8 (main.1.sm_70.ptx:1942) shfl.sync.idx.b32 %r322|%p221, %r7006, %r6038, %r6067, %r6068;
GPGPU-Sim PTX: 73 (potential) branch divergence @  PC=0x2ed8 (main.1.sm_70.ptx:1946) @%p4183 bra BB0_145;
GPGPU-Sim PTX:    immediate post dominator      @  PC=0x2f40 (main.1.sm_70.ptx:1962) add.s32 %r24707, %r24707, 1;
GPGPU-Sim PTX: 74 (potential) branch divergence @  PC=0x2f50 (main.1.sm_70.ptx:1964) @%p4187 bra BB0_137;
GPGPU-Sim PTX:    immediate post dominator      @  PC=0x2f58 (main.1.sm_70.ptx:1966) xor.b32 %r7069, %r6029, 14;
GPGPU-Sim PTX: 75 (potential) branch divergence @  PC=0x2fe0 (main.1.sm_70.ptx:1985) @%p4189 bra BB0_149;
GPGPU-Sim PTX:    immediate post dominator      @  PC=0x3048 (main.1.sm_70.ptx:2001) shfl.sync.idx.b32 %r337|%p229, %r7078, %r6037, %r6067, %r6068;
GPGPU-Sim PTX: 76 (potential) branch divergence @  PC=0x3068 (main.1.sm_70.ptx:2005) @%p4189 bra BB0_151;
GPGPU-Sim PTX:    immediate post dominator      @  PC=0x30d0 (main.1.sm_70.ptx:2021) shfl.sync.idx.b32 %r341|%p233, %r7078, %r6047, %r6067, %r6068;
GPGPU-Sim PTX: 77 (potential) branch divergence @  PC=0x30f0 (main.1.sm_70.ptx:2025) @%p4189 bra BB0_153;
GPGPU-Sim PTX:    immediate post dominator      @  PC=0x3158 (main.1.sm_70.ptx:2041) shfl.sync.idx.b32 %r345|%p237, %r7078, %r6038, %r6067, %r6068;
GPGPU-Sim PTX: 78 (potential) branch divergence @  PC=0x3178 (main.1.sm_70.ptx:2045) @%p4189 bra BB0_155;
GPGPU-Sim PTX:    immediate post dominator      @  PC=0x31e0 (main.1.sm_70.ptx:2061) add.s32 %r24708, %r24708, 1;
GPGPU-Sim PTX: 79 (potential) branch divergence @  PC=0x31f0 (main.1.sm_70.ptx:2063) @%p4193 bra BB0_147;
GPGPU-Sim PTX:    immediate post dominator      @  PC=0x31f8 (main.1.sm_70.ptx:2065) xor.b32 %r7141, %r6029, 15;
GPGPU-Sim PTX: 80 (potential) branch divergence @  PC=0x3280 (main.1.sm_70.ptx:2084) @%p4195 bra BB0_159;
GPGPU-Sim PTX:    immediate post dominator      @  PC=0x32e8 (main.1.sm_70.ptx:2100) shfl.sync.idx.b32 %r360|%p245, %r7150, %r6037, %r6067, %r6068;
GPGPU-Sim PTX: 81 (potential) branch divergence @  PC=0x3308 (main.1.sm_70.ptx:2104) @%p4195 bra BB0_161;
GPGPU-Sim PTX:    immediate post dominator      @  PC=0x3370 (main.1.sm_70.ptx:2120) shfl.sync.idx.b32 %r364|%p249, %r7150, %r6047, %r6067, %r6068;
GPGPU-Sim PTX: 82 (potential) branch divergence @  PC=0x3390 (main.1.sm_70.ptx:2124) @%p4195 bra BB0_163;
GPGPU-Sim PTX:    immediate post dominator      @  PC=0x33f8 (main.1.sm_70.ptx:2140) shfl.sync.idx.b32 %r368|%p253, %r7150, %r6038, %r6067, %r6068;
GPGPU-Sim PTX: 83 (potential) branch divergence @  PC=0x3418 (main.1.sm_70.ptx:2144) @%p4195 bra BB0_165;
GPGPU-Sim PTX:    immediate post dominator      @  PC=0x3480 (main.1.sm_70.ptx:2160) add.s32 %r24709, %r24709, 1;
GPGPU-Sim PTX: 84 (potential) branch divergence @  PC=0x3490 (main.1.sm_70.ptx:2162) @%p4199 bra BB0_157;
GPGPU-Sim PTX:    immediate post dominator      @  PC=0x3498 (main.1.sm_70.ptx:2164) xor.b32 %r7213, %r6029, 16;
GPGPU-Sim PTX: 85 (potential) branch divergence @  PC=0x3520 (main.1.sm_70.ptx:2183) @%p4201 bra BB0_169;
GPGPU-Sim PTX:    immediate post dominator      @  PC=0x3588 (main.1.sm_70.ptx:2199) shfl.sync.idx.b32 %r383|%p261, %r7222, %r6037, %r6067, %r6068;
GPGPU-Sim PTX: 86 (potential) branch divergence @  PC=0x35a8 (main.1.sm_70.ptx:2203) @%p4201 bra BB0_171;
GPGPU-Sim PTX:    immediate post dominator      @  PC=0x3610 (main.1.sm_70.ptx:2219) shfl.sync.idx.b32 %r387|%p265, %r7222, %r6047, %r6067, %r6068;
GPGPU-Sim PTX: 87 (potential) branch divergence @  PC=0x3630 (main.1.sm_70.ptx:2223) @%p4201 bra BB0_173;
GPGPU-Sim PTX:    immediate post dominator      @  PC=0x3698 (main.1.sm_70.ptx:2239) shfl.sync.idx.b32 %r391|%p269, %r7222, %r6038, %r6067, %r6068;
GPGPU-Sim PTX: 88 (potential) branch divergence @  PC=0x36b8 (main.1.sm_70.ptx:2243) @%p4201 bra BB0_175;
GPGPU-Sim PTX:    immediate post dominator      @  PC=0x3720 (main.1.sm_70.ptx:2259) add.s32 %r24710, %r24710, 1;
GPGPU-Sim PTX: 89 (potential) branch divergence @  PC=0x3730 (main.1.sm_70.ptx:2261) @%p4205 bra BB0_167;
GPGPU-Sim PTX:    immediate post dominator      @  PC=0x3738 (main.1.sm_70.ptx:2263) xor.b32 %r7285, %r6029, 17;
GPGPU-Sim PTX: 90 (potential) branch divergence @  PC=0x37c0 (main.1.sm_70.ptx:2282) @%p4207 bra BB0_179;
GPGPU-Sim PTX:    immediate post dominator      @  PC=0x3828 (main.1.sm_70.ptx:2298) shfl.sync.idx.b32 %r406|%p277, %r7294, %r6037, %r6067, %r6068;
GPGPU-Sim PTX: 91 (potential) branch divergence @  PC=0x3848 (main.1.sm_70.ptx:2302) @%p4207 bra BB0_181;
GPGPU-Sim PTX:    immediate post dominator      @  PC=0x38b0 (main.1.sm_70.ptx:2318) shfl.sync.idx.b32 %r410|%p281, %r7294, %r6047, %r6067, %r6068;
GPGPU-Sim PTX: 92 (potential) branch divergence @  PC=0x38d0 (main.1.sm_70.ptx:2322) @%p4207 bra BB0_183;
GPGPU-Sim PTX:    immediate post dominator      @  PC=0x3938 (main.1.sm_70.ptx:2338) shfl.sync.idx.b32 %r414|%p285, %r7294, %r6038, %r6067, %r6068;
GPGPU-Sim PTX: 93 (potential) branch divergence @  PC=0x3958 (main.1.sm_70.ptx:2342) @%p4207 bra BB0_185;
GPGPU-Sim PTX:    immediate post dominator      @  PC=0x39c0 (main.1.sm_70.ptx:2358) add.s32 %r24711, %r24711, 1;
GPGPU-Sim PTX: 94 (potential) branch divergence @  PC=0x39d0 (main.1.sm_70.ptx:2360) @%p4211 bra BB0_177;
GPGPU-Sim PTX:    immediate post dominator      @  PC=0x39d8 (main.1.sm_70.ptx:2362) xor.b32 %r7357, %r6029, 18;
GPGPU-Sim PTX: 95 (potential) branch divergence @  PC=0x3a60 (main.1.sm_70.ptx:2381) @%p4213 bra BB0_189;
GPGPU-Sim PTX:    immediate post dominator      @  PC=0x3ac8 (main.1.sm_70.ptx:2397) shfl.sync.idx.b32 %r429|%p293, %r7366, %r6037, %r6067, %r6068;
GPGPU-Sim PTX: 96 (potential) branch divergence @  PC=0x3ae8 (main.1.sm_70.ptx:2401) @%p4213 bra BB0_191;
GPGPU-Sim PTX:    immediate post dominator      @  PC=0x3b50 (main.1.sm_70.ptx:2417) shfl.sync.idx.b32 %r433|%p297, %r7366, %r6047, %r6067, %r6068;
GPGPU-Sim PTX: 97 (potential) branch divergence @  PC=0x3b70 (main.1.sm_70.ptx:2421) @%p4213 bra BB0_193;
GPGPU-Sim PTX:    immediate post dominator      @  PC=0x3bd8 (main.1.sm_70.ptx:2437) shfl.sync.idx.b32 %r437|%p301, %r7366, %r6038, %r6067, %r6068;
GPGPU-Sim PTX: 98 (potential) branch divergence @  PC=0x3bf8 (main.1.sm_70.ptx:2441) @%p4213 bra BB0_195;
GPGPU-Sim PTX:    immediate post dominator      @  PC=0x3c60 (main.1.sm_70.ptx:2457) add.s32 %r24712, %r24712, 1;
GPGPU-Sim PTX: 99 (potential) branch divergence @  PC=0x3c70 (main.1.sm_70.ptx:2459) @%p4217 bra BB0_187;
GPGPU-Sim PTX:    immediate post dominator      @  PC=0x3c78 (main.1.sm_70.ptx:2461) xor.b32 %r7429, %r6029, 19;
GPGPU-Sim PTX: 100 (potential) branch divergence @  PC=0x3d00 (main.1.sm_70.ptx:2480) @%p4219 bra BB0_199;
GPGPU-Sim PTX:    immediate post dominator      @  PC=0x3d68 (main.1.sm_70.ptx:2496) shfl.sync.idx.b32 %r452|%p309, %r7438, %r6037, %r6067, %r6068;
GPGPU-Sim PTX: 101 (potential) branch divergence @  PC=0x3d88 (main.1.sm_70.ptx:2500) @%p4219 bra BB0_201;
GPGPU-Sim PTX:    immediate post dominator      @  PC=0x3df0 (main.1.sm_70.ptx:2516) shfl.sync.idx.b32 %r456|%p313, %r7438, %r6047, %r6067, %r6068;
GPGPU-Sim PTX: 102 (potential) branch divergence @  PC=0x3e10 (main.1.sm_70.ptx:2520) @%p4219 bra BB0_203;
GPGPU-Sim PTX:    immediate post dominator      @  PC=0x3e78 (main.1.sm_70.ptx:2536) shfl.sync.idx.b32 %r460|%p317, %r7438, %r6038, %r6067, %r6068;
GPGPU-Sim PTX: 103 (potential) branch divergence @  PC=0x3e98 (main.1.sm_70.ptx:2540) @%p4219 bra BB0_205;
GPGPU-Sim PTX:    immediate post dominator      @  PC=0x3f00 (main.1.sm_70.ptx:2556) add.s32 %r24713, %r24713, 1;
GPGPU-Sim PTX: 104 (potential) branch divergence @  PC=0x3f10 (main.1.sm_70.ptx:2558) @%p4223 bra BB0_197;
GPGPU-Sim PTX:    immediate post dominator      @  PC=0x3f18 (main.1.sm_70.ptx:2560) xor.b32 %r7501, %r6029, 20;
GPGPU-Sim PTX: 105 (potential) branch divergence @  PC=0x3fa0 (main.1.sm_70.ptx:2579) @%p4225 bra BB0_209;
GPGPU-Sim PTX:    immediate post dominator      @  PC=0x4008 (main.1.sm_70.ptx:2595) shfl.sync.idx.b32 %r475|%p325, %r7510, %r6037, %r6067, %r6068;
GPGPU-Sim PTX: 106 (potential) branch divergence @  PC=0x4028 (main.1.sm_70.ptx:2599) @%p4225 bra BB0_211;
GPGPU-Sim PTX:    immediate post dominator      @  PC=0x4090 (main.1.sm_70.ptx:2615) shfl.sync.idx.b32 %r479|%p329, %r7510, %r6047, %r6067, %r6068;
GPGPU-Sim PTX: 107 (potential) branch divergence @  PC=0x40b0 (main.1.sm_70.ptx:2619) @%p4225 bra BB0_213;
GPGPU-Sim PTX:    immediate post dominator      @  PC=0x4118 (main.1.sm_70.ptx:2635) shfl.sync.idx.b32 %r483|%p333, %r7510, %r6038, %r6067, %r6068;
GPGPU-Sim PTX: 108 (potential) branch divergence @  PC=0x4138 (main.1.sm_70.ptx:2639) @%p4225 bra BB0_215;
GPGPU-Sim PTX:    immediate post dominator      @  PC=0x41a0 (main.1.sm_70.ptx:2655) add.s32 %r24714, %r24714, 1;
GPGPU-Sim PTX: 109 (potential) branch divergence @  PC=0x41b0 (main.1.sm_70.ptx:2657) @%p4229 bra BB0_207;
GPGPU-Sim PTX:    immediate post dominator      @  PC=0x41b8 (main.1.sm_70.ptx:2659) xor.b32 %r7573, %r6029, 21;
GPGPU-Sim PTX: 110 (potential) branch divergence @  PC=0x4240 (main.1.sm_70.ptx:2678) @%p4231 bra BB0_219;
GPGPU-Sim PTX:    immediate post dominator      @  PC=0x42a8 (main.1.sm_70.ptx:2694) shfl.sync.idx.b32 %r498|%p341, %r7582, %r6037, %r6067, %r6068;
GPGPU-Sim PTX: 111 (potential) branch divergence @  PC=0x42c8 (main.1.sm_70.ptx:2698) @%p4231 bra BB0_221;
GPGPU-Sim PTX:    immediate post dominator      @  PC=0x4330 (main.1.sm_70.ptx:2714) shfl.sync.idx.b32 %r502|%p345, %r7582, %r6047, %r6067, %r6068;
GPGPU-Sim PTX: 112 (potential) branch divergence @  PC=0x4350 (main.1.sm_70.ptx:2718) @%p4231 bra BB0_223;
GPGPU-Sim PTX:    immediate post dominator      @  PC=0x43b8 (main.1.sm_70.ptx:2734) shfl.sync.idx.b32 %r506|%p349, %r7582, %r6038, %r6067, %r6068;
GPGPU-Sim PTX: 113 (potential) branch divergence @  PC=0x43d8 (main.1.sm_70.ptx:2738) @%p4231 bra BB0_225;
GPGPU-Sim PTX:    immediate post dominator      @  PC=0x4440 (main.1.sm_70.ptx:2754) add.s32 %r24715, %r24715, 1;
GPGPU-Sim PTX: 114 (potential) branch divergence @  PC=0x4450 (main.1.sm_70.ptx:2756) @%p4235 bra BB0_217;
GPGPU-Sim PTX:    immediate post dominator      @  PC=0x4458 (main.1.sm_70.ptx:2758) xor.b32 %r7645, %r6029, 22;
GPGPU-Sim PTX: 115 (potential) branch divergence @  PC=0x44e0 (main.1.sm_70.ptx:2777) @%p4237 bra BB0_229;
GPGPU-Sim PTX:    immediate post dominator      @  PC=0x4548 (main.1.sm_70.ptx:2793) shfl.sync.idx.b32 %r521|%p357, %r7654, %r6037, %r6067, %r6068;
GPGPU-Sim PTX: 116 (potential) branch divergence @  PC=0x4568 (main.1.sm_70.ptx:2797) @%p4237 bra BB0_231;
GPGPU-Sim PTX:    immediate post dominator      @  PC=0x45d0 (main.1.sm_70.ptx:2813) shfl.sync.idx.b32 %r525|%p361, %r7654, %r6047, %r6067, %r6068;
GPGPU-Sim PTX: 117 (potential) branch divergence @  PC=0x45f0 (main.1.sm_70.ptx:2817) @%p4237 bra BB0_233;
GPGPU-Sim PTX:    immediate post dominator      @  PC=0x4658 (main.1.sm_70.ptx:2833) shfl.sync.idx.b32 %r529|%p365, %r7654, %r6038, %r6067, %r6068;
GPGPU-Sim PTX: 118 (potential) branch divergence @  PC=0x4678 (main.1.sm_70.ptx:2837) @%p4237 bra BB0_235;
GPGPU-Sim PTX:    immediate post dominator      @  PC=0x46e0 (main.1.sm_70.ptx:2853) add.s32 %r24716, %r24716, 1;
GPGPU-Sim PTX: 119 (potential) branch divergence @  PC=0x46f0 (main.1.sm_70.ptx:2855) @%p4241 bra BB0_227;
GPGPU-Sim PTX:    immediate post dominator      @  PC=0x46f8 (main.1.sm_70.ptx:2857) xor.b32 %r7717, %r6029, 23;
GPGPU-Sim PTX: 120 (potential) branch divergence @  PC=0x4780 (main.1.sm_70.ptx:2876) @%p4243 bra BB0_239;
GPGPU-Sim PTX:    immediate post dominator      @  PC=0x47e8 (main.1.sm_70.ptx:2892) shfl.sync.idx.b32 %r544|%p373, %r7726, %r6037, %r6067, %r6068;
GPGPU-Sim PTX: 121 (potential) branch divergence @  PC=0x4808 (main.1.sm_70.ptx:2896) @%p4243 bra BB0_241;
GPGPU-Sim PTX:    immediate post dominator      @  PC=0x4870 (main.1.sm_70.ptx:2912) shfl.sync.idx.b32 %r548|%p377, %r7726, %r6047, %r6067, %r6068;
GPGPU-Sim PTX: 122 (potential) branch divergence @  PC=0x4890 (main.1.sm_70.ptx:2916) @%p4243 bra BB0_243;
GPGPU-Sim PTX:    immediate post dominator      @  PC=0x48f8 (main.1.sm_70.ptx:2932) shfl.sync.idx.b32 %r552|%p381, %r7726, %r6038, %r6067, %r6068;
GPGPU-Sim PTX: 123 (potential) branch divergence @  PC=0x4918 (main.1.sm_70.ptx:2936) @%p4243 bra BB0_245;
GPGPU-Sim PTX:    immediate post dominator      @  PC=0x4980 (main.1.sm_70.ptx:2952) add.s32 %r24717, %r24717, 1;
GPGPU-Sim PTX: 124 (potential) branch divergence @  PC=0x4990 (main.1.sm_70.ptx:2954) @%p4247 bra BB0_237;
GPGPU-Sim PTX:    immediate post dominator      @  PC=0x4998 (main.1.sm_70.ptx:2956) xor.b32 %r7789, %r6029, 24;
GPGPU-Sim PTX: 125 (potential) branch divergence @  PC=0x4a20 (main.1.sm_70.ptx:2975) @%p4249 bra BB0_249;
GPGPU-Sim PTX:    immediate post dominator      @  PC=0x4a88 (main.1.sm_70.ptx:2991) shfl.sync.idx.b32 %r567|%p389, %r7798, %r6037, %r6067, %r6068;
GPGPU-Sim PTX: 126 (potential) branch divergence @  PC=0x4aa8 (main.1.sm_70.ptx:2995) @%p4249 bra BB0_251;
GPGPU-Sim PTX:    immediate post dominator      @  PC=0x4b10 (main.1.sm_70.ptx:3011) shfl.sync.idx.b32 %r571|%p393, %r7798, %r6047, %r6067, %r6068;
GPGPU-Sim PTX: 127 (potential) branch divergence @  PC=0x4b30 (main.1.sm_70.ptx:3015) @%p4249 bra BB0_253;
GPGPU-Sim PTX:    immediate post dominator      @  PC=0x4b98 (main.1.sm_70.ptx:3031) shfl.sync.idx.b32 %r575|%p397, %r7798, %r6038, %r6067, %r6068;
GPGPU-Sim PTX: 128 (potential) branch divergence @  PC=0x4bb8 (main.1.sm_70.ptx:3035) @%p4249 bra BB0_255;
GPGPU-Sim PTX:    immediate post dominator      @  PC=0x4c20 (main.1.sm_70.ptx:3051) add.s32 %r24718, %r24718, 1;
GPGPU-Sim PTX: 129 (potential) branch divergence @  PC=0x4c30 (main.1.sm_70.ptx:3053) @%p4253 bra BB0_247;
GPGPU-Sim PTX:    immediate post dominator      @  PC=0x4c38 (main.1.sm_70.ptx:3055) xor.b32 %r7861, %r6029, 25;
GPGPU-Sim PTX: 130 (potential) branch divergence @  PC=0x4cc0 (main.1.sm_70.ptx:3074) @%p4255 bra BB0_259;
GPGPU-Sim PTX:    immediate post dominator      @  PC=0x4d28 (main.1.sm_70.ptx:3090) shfl.sync.idx.b32 %r590|%p405, %r7870, %r6037, %r6067, %r6068;
GPGPU-Sim PTX: 131 (potential) branch divergence @  PC=0x4d48 (main.1.sm_70.ptx:3094) @%p4255 bra BB0_261;
GPGPU-Sim PTX:    immediate post dominator      @  PC=0x4db0 (main.1.sm_70.ptx:3110) shfl.sync.idx.b32 %r594|%p409, %r7870, %r6047, %r6067, %r6068;
GPGPU-Sim PTX: 132 (potential) branch divergence @  PC=0x4dd0 (main.1.sm_70.ptx:3114) @%p4255 bra BB0_263;
GPGPU-Sim PTX:    immediate post dominator      @  PC=0x4e38 (main.1.sm_70.ptx:3130) shfl.sync.idx.b32 %r598|%p413, %r7870, %r6038, %r6067, %r6068;
GPGPU-Sim PTX: 133 (potential) branch divergence @  PC=0x4e58 (main.1.sm_70.ptx:3134) @%p4255 bra BB0_265;
GPGPU-Sim PTX:    immediate post dominator      @  PC=0x4ec0 (main.1.sm_70.ptx:3150) add.s32 %r24719, %r24719, 1;
GPGPU-Sim PTX: 134 (potential) branch divergence @  PC=0x4ed0 (main.1.sm_70.ptx:3152) @%p4259 bra BB0_257;
GPGPU-Sim PTX:    immediate post dominator      @  PC=0x4ed8 (main.1.sm_70.ptx:3154) xor.b32 %r7933, %r6029, 26;
GPGPU-Sim PTX: 135 (potential) branch divergence @  PC=0x4f60 (main.1.sm_70.ptx:3173) @%p4261 bra BB0_269;
GPGPU-Sim PTX:    immediate post dominator      @  PC=0x4fc8 (main.1.sm_70.ptx:3189) shfl.sync.idx.b32 %r613|%p421, %r7942, %r6037, %r6067, %r6068;
GPGPU-Sim PTX: 136 (potential) branch divergence @  PC=0x4fe8 (main.1.sm_70.ptx:3193) @%p4261 bra BB0_271;
GPGPU-Sim PTX:    immediate post dominator      @  PC=0x5050 (main.1.sm_70.ptx:3209) shfl.sync.idx.b32 %r617|%p425, %r7942, %r6047, %r6067, %r6068;
GPGPU-Sim PTX: 137 (potential) branch divergence @  PC=0x5070 (main.1.sm_70.ptx:3213) @%p4261 bra BB0_273;
GPGPU-Sim PTX:    immediate post dominator      @  PC=0x50d8 (main.1.sm_70.ptx:3229) shfl.sync.idx.b32 %r621|%p429, %r7942, %r6038, %r6067, %r6068;
GPGPU-Sim PTX: 138 (potential) branch divergence @  PC=0x50f8 (main.1.sm_70.ptx:3233) @%p4261 bra BB0_275;
GPGPU-Sim PTX:    immediate post dominator      @  PC=0x5160 (main.1.sm_70.ptx:3249) add.s32 %r24720, %r24720, 1;
GPGPU-Sim PTX: 139 (potential) branch divergence @  PC=0x5170 (main.1.sm_70.ptx:3251) @%p4265 bra BB0_267;
GPGPU-Sim PTX:    immediate post dominator      @  PC=0x5178 (main.1.sm_70.ptx:3253) xor.b32 %r8005, %r6029, 27;
GPGPU-Sim PTX: 140 (potential) branch divergence @  PC=0x5200 (main.1.sm_70.ptx:3272) @%p4267 bra BB0_279;
GPGPU-Sim PTX:    immediate post dominator      @  PC=0x5268 (main.1.sm_70.ptx:3288) shfl.sync.idx.b32 %r636|%p437, %r8014, %r6037, %r6067, %r6068;
GPGPU-Sim PTX: 141 (potential) branch divergence @  PC=0x5288 (main.1.sm_70.ptx:3292) @%p4267 bra BB0_281;
GPGPU-Sim PTX:    immediate post dominator      @  PC=0x52f0 (main.1.sm_70.ptx:3308) shfl.sync.idx.b32 %r640|%p441, %r8014, %r6047, %r6067, %r6068;
GPGPU-Sim PTX: 142 (potential) branch divergence @  PC=0x5310 (main.1.sm_70.ptx:3312) @%p4267 bra BB0_283;
GPGPU-Sim PTX:    immediate post dominator      @  PC=0x5378 (main.1.sm_70.ptx:3328) shfl.sync.idx.b32 %r644|%p445, %r8014, %r6038, %r6067, %r6068;
GPGPU-Sim PTX: 143 (potential) branch divergence @  PC=0x5398 (main.1.sm_70.ptx:3332) @%p4267 bra BB0_285;
GPGPU-Sim PTX:    immediate post dominator      @  PC=0x5400 (main.1.sm_70.ptx:3348) add.s32 %r24721, %r24721, 1;
GPGPU-Sim PTX: 144 (potential) branch divergence @  PC=0x5410 (main.1.sm_70.ptx:3350) @%p4271 bra BB0_277;
GPGPU-Sim PTX:    immediate post dominator      @  PC=0x5418 (main.1.sm_70.ptx:3352) xor.b32 %r8077, %r6029, 28;
GPGPU-Sim PTX: 145 (potential) branch divergence @  PC=0x54a0 (main.1.sm_70.ptx:3371) @%p4273 bra BB0_289;
GPGPU-Sim PTX:    immediate post dominator      @  PC=0x5508 (main.1.sm_70.ptx:3387) shfl.sync.idx.b32 %r659|%p453, %r8086, %r6037, %r6067, %r6068;
GPGPU-Sim PTX: 146 (potential) branch divergence @  PC=0x5528 (main.1.sm_70.ptx:3391) @%p4273 bra BB0_291;
GPGPU-Sim PTX:    immediate post dominator      @  PC=0x5590 (main.1.sm_70.ptx:3407) shfl.sync.idx.b32 %r663|%p457, %r8086, %r6047, %r6067, %r6068;
GPGPU-Sim PTX: 147 (potential) branch divergence @  PC=0x55b0 (main.1.sm_70.ptx:3411) @%p4273 bra BB0_293;
GPGPU-Sim PTX:    immediate post dominator      @  PC=0x5618 (main.1.sm_70.ptx:3427) shfl.sync.idx.b32 %r667|%p461, %r8086, %r6038, %r6067, %r6068;
GPGPU-Sim PTX: 148 (potential) branch divergence @  PC=0x5638 (main.1.sm_70.ptx:3431) @%p4273 bra BB0_295;
GPGPU-Sim PTX:    immediate post dominator      @  PC=0x56a0 (main.1.sm_70.ptx:3447) add.s32 %r24722, %r24722, 1;
GPGPU-Sim PTX: 149 (potential) branch divergence @  PC=0x56b0 (main.1.sm_70.ptx:3449) @%p4277 bra BB0_287;
GPGPU-Sim PTX:    immediate post dominator      @  PC=0x56b8 (main.1.sm_70.ptx:3451) xor.b32 %r8149, %r6029, 29;
GPGPU-Sim PTX: 150 (potential) branch divergence @  PC=0x5740 (main.1.sm_70.ptx:3470) @%p4279 bra BB0_299;
GPGPU-Sim PTX:    immediate post dominator      @  PC=0x57a8 (main.1.sm_70.ptx:3486) shfl.sync.idx.b32 %r682|%p469, %r8158, %r6037, %r6067, %r6068;
GPGPU-Sim PTX: 151 (potential) branch divergence @  PC=0x57c8 (main.1.sm_70.ptx:3490) @%p4279 bra BB0_301;
GPGPU-Sim PTX:    immediate post dominator      @  PC=0x5830 (main.1.sm_70.ptx:3506) shfl.sync.idx.b32 %r686|%p473, %r8158, %r6047, %r6067, %r6068;
GPGPU-Sim PTX: 152 (potential) branch divergence @  PC=0x5850 (main.1.sm_70.ptx:3510) @%p4279 bra BB0_303;
GPGPU-Sim PTX:    immediate post dominator      @  PC=0x58b8 (main.1.sm_70.ptx:3526) shfl.sync.idx.b32 %r690|%p477, %r8158, %r6038, %r6067, %r6068;
GPGPU-Sim PTX: 153 (potential) branch divergence @  PC=0x58d8 (main.1.sm_70.ptx:3530) @%p4279 bra BB0_305;
GPGPU-Sim PTX:    immediate post dominator      @  PC=0x5940 (main.1.sm_70.ptx:3546) add.s32 %r24723, %r24723, 1;
GPGPU-Sim PTX: 154 (potential) branch divergence @  PC=0x5950 (main.1.sm_70.ptx:3548) @%p4283 bra BB0_297;
GPGPU-Sim PTX:    immediate post dominator      @  PC=0x5958 (main.1.sm_70.ptx:3550) xor.b32 %r8221, %r6029, 30;
GPGPU-Sim PTX: 155 (potential) branch divergence @  PC=0x59e0 (main.1.sm_70.ptx:3569) @%p4285 bra BB0_309;
GPGPU-Sim PTX:    immediate post dominator      @  PC=0x5a48 (main.1.sm_70.ptx:3585) shfl.sync.idx.b32 %r705|%p485, %r8230, %r6037, %r6067, %r6068;
GPGPU-Sim PTX: 156 (potential) branch divergence @  PC=0x5a68 (main.1.sm_70.ptx:3589) @%p4285 bra BB0_311;
GPGPU-Sim PTX:    immediate post dominator      @  PC=0x5ad0 (main.1.sm_70.ptx:3605) shfl.sync.idx.b32 %r709|%p489, %r8230, %r6047, %r6067, %r6068;
GPGPU-Sim PTX: 157 (potential) branch divergence @  PC=0x5af0 (main.1.sm_70.ptx:3609) @%p4285 bra BB0_313;
GPGPU-Sim PTX:    immediate post dominator      @  PC=0x5b58 (main.1.sm_70.ptx:3625) shfl.sync.idx.b32 %r713|%p493, %r8230, %r6038, %r6067, %r6068;
GPGPU-Sim PTX: 158 (potential) branch divergence @  PC=0x5b78 (main.1.sm_70.ptx:3629) @%p4285 bra BB0_315;
GPGPU-Sim PTX:    immediate post dominator      @  PC=0x5be0 (main.1.sm_70.ptx:3645) add.s32 %r24724, %r24724, 1;
GPGPU-Sim PTX: 159 (potential) branch divergence @  PC=0x5bf0 (main.1.sm_70.ptx:3647) @%p4289 bra BB0_307;
GPGPU-Sim PTX:    immediate post dominator      @  PC=0x5bf8 (main.1.sm_70.ptx:3649) xor.b32 %r8293, %r6029, 31;
GPGPU-Sim PTX: 160 (potential) branch divergence @  PC=0x5c80 (main.1.sm_70.ptx:3668) @%p4291 bra BB0_319;
GPGPU-Sim PTX:    immediate post dominator      @  PC=0x5ce8 (main.1.sm_70.ptx:3684) shfl.sync.idx.b32 %r728|%p501, %r8302, %r6037, %r6067, %r6068;
GPGPU-Sim PTX: 161 (potential) branch divergence @  PC=0x5d08 (main.1.sm_70.ptx:3688) @%p4291 bra BB0_321;
GPGPU-Sim PTX:    immediate post dominator      @  PC=0x5d70 (main.1.sm_70.ptx:3704) shfl.sync.idx.b32 %r732|%p505, %r8302, %r6047, %r6067, %r6068;
GPGPU-Sim PTX: 162 (potential) branch divergence @  PC=0x5d90 (main.1.sm_70.ptx:3708) @%p4291 bra BB0_323;
GPGPU-Sim PTX:    immediate post dominator      @  PC=0x5df8 (main.1.sm_70.ptx:3724) shfl.sync.idx.b32 %r736|%p509, %r8302, %r6038, %r6067, %r6068;
GPGPU-Sim PTX: 163 (potential) branch divergence @  PC=0x5e18 (main.1.sm_70.ptx:3728) @%p4291 bra BB0_325;
GPGPU-Sim PTX:    immediate post dominator      @  PC=0x5e80 (main.1.sm_70.ptx:3744) add.s32 %r24725, %r24725, 1;
GPGPU-Sim PTX: 164 (potential) branch divergence @  PC=0x5e90 (main.1.sm_70.ptx:3746) @%p4295 bra BB0_317;
GPGPU-Sim PTX:    immediate post dominator      @  PC=0x5e98 (main.1.sm_70.ptx:3748) xor.b32 %r8365, %r6029, 32;
GPGPU-Sim PTX: 165 (potential) branch divergence @  PC=0x5f20 (main.1.sm_70.ptx:3767) @%p4297 bra BB0_329;
GPGPU-Sim PTX:    immediate post dominator      @  PC=0x5f88 (main.1.sm_70.ptx:3783) shfl.sync.idx.b32 %r751|%p517, %r8374, %r6037, %r6067, %r6068;
GPGPU-Sim PTX: 166 (potential) branch divergence @  PC=0x5fa8 (main.1.sm_70.ptx:3787) @%p4297 bra BB0_331;
GPGPU-Sim PTX:    immediate post dominator      @  PC=0x6010 (main.1.sm_70.ptx:3803) shfl.sync.idx.b32 %r755|%p521, %r8374, %r6047, %r6067, %r6068;
GPGPU-Sim PTX: 167 (potential) branch divergence @  PC=0x6030 (main.1.sm_70.ptx:3807) @%p4297 bra BB0_333;
GPGPU-Sim PTX:    immediate post dominator      @  PC=0x6098 (main.1.sm_70.ptx:3823) shfl.sync.idx.b32 %r759|%p525, %r8374, %r6038, %r6067, %r6068;
GPGPU-Sim PTX: 168 (potential) branch divergence @  PC=0x60b8 (main.1.sm_70.ptx:3827) @%p4297 bra BB0_335;
GPGPU-Sim PTX:    immediate post dominator      @  PC=0x6120 (main.1.sm_70.ptx:3843) add.s32 %r24726, %r24726, 1;
GPGPU-Sim PTX: 169 (potential) branch divergence @  PC=0x6130 (main.1.sm_70.ptx:3845) @%p4301 bra BB0_327;
GPGPU-Sim PTX:    immediate post dominator      @  PC=0x6138 (main.1.sm_70.ptx:3847) xor.b32 %r8437, %r6029, 33;
GPGPU-Sim PTX: 170 (potential) branch divergence @  PC=0x61c0 (main.1.sm_70.ptx:3866) @%p4303 bra BB0_339;
GPGPU-Sim PTX:    immediate post dominator      @  PC=0x6228 (main.1.sm_70.ptx:3882) shfl.sync.idx.b32 %r774|%p533, %r8446, %r6037, %r6067, %r6068;
GPGPU-Sim PTX: 171 (potential) branch divergence @  PC=0x6248 (main.1.sm_70.ptx:3886) @%p4303 bra BB0_341;
GPGPU-Sim PTX:    immediate post dominator      @  PC=0x62b0 (main.1.sm_70.ptx:3902) shfl.sync.idx.b32 %r778|%p537, %r8446, %r6047, %r6067, %r6068;
GPGPU-Sim PTX: 172 (potential) branch divergence @  PC=0x62d0 (main.1.sm_70.ptx:3906) @%p4303 bra BB0_343;
GPGPU-Sim PTX:    immediate post dominator      @  PC=0x6338 (main.1.sm_70.ptx:3922) shfl.sync.idx.b32 %r782|%p541, %r8446, %r6038, %r6067, %r6068;
GPGPU-Sim PTX: 173 (potential) branch divergence @  PC=0x6358 (main.1.sm_70.ptx:3926) @%p4303 bra BB0_345;
GPGPU-Sim PTX:    immediate post dominator      @  PC=0x63c0 (main.1.sm_70.ptx:3942) add.s32 %r24727, %r24727, 1;
GPGPU-Sim PTX: 174 (potential) branch divergence @  PC=0x63d0 (main.1.sm_70.ptx:3944) @%p4307 bra BB0_337;
GPGPU-Sim PTX:    immediate post dominator      @  PC=0x63d8 (main.1.sm_70.ptx:3946) xor.b32 %r8509, %r6029, 34;
GPGPU-Sim PTX: 175 (potential) branch divergence @  PC=0x6460 (main.1.sm_70.ptx:3965) @%p4309 bra BB0_349;
GPGPU-Sim PTX:    immediate post dominator      @  PC=0x64c8 (main.1.sm_70.ptx:3981) shfl.sync.idx.b32 %r797|%p549, %r8518, %r6037, %r6067, %r6068;
GPGPU-Sim PTX: 176 (potential) branch divergence @  PC=0x64e8 (main.1.sm_70.ptx:3985) @%p4309 bra BB0_351;
GPGPU-Sim PTX:    immediate post dominator      @  PC=0x6550 (main.1.sm_70.ptx:4001) shfl.sync.idx.b32 %r801|%p553, %r8518, %r6047, %r6067, %r6068;
GPGPU-Sim PTX: 177 (potential) branch divergence @  PC=0x6570 (main.1.sm_70.ptx:4005) @%p4309 bra BB0_353;
GPGPU-Sim PTX:    immediate post dominator      @  PC=0x65d8 (main.1.sm_70.ptx:4021) shfl.sync.idx.b32 %r805|%p557, %r8518, %r6038, %r6067, %r6068;
GPGPU-Sim PTX: 178 (potential) branch divergence @  PC=0x65f8 (main.1.sm_70.ptx:4025) @%p4309 bra BB0_355;
GPGPU-Sim PTX:    immediate post dominator      @  PC=0x6660 (main.1.sm_70.ptx:4041) add.s32 %r24728, %r24728, 1;
GPGPU-Sim PTX: 179 (potential) branch divergence @  PC=0x6670 (main.1.sm_70.ptx:4043) @%p4313 bra BB0_347;
GPGPU-Sim PTX:    immediate post dominator      @  PC=0x6678 (main.1.sm_70.ptx:4045) xor.b32 %r8581, %r6029, 35;
GPGPU-Sim PTX: 180 (potential) branch divergence @  PC=0x6700 (main.1.sm_70.ptx:4064) @%p4315 bra BB0_359;
GPGPU-Sim PTX:    immediate post dominator      @  PC=0x6768 (main.1.sm_70.ptx:4080) shfl.sync.idx.b32 %r820|%p565, %r8590, %r6037, %r6067, %r6068;
GPGPU-Sim PTX: 181 (potential) branch divergence @  PC=0x6788 (main.1.sm_70.ptx:4084) @%p4315 bra BB0_361;
GPGPU-Sim PTX:    immediate post dominator      @  PC=0x67f0 (main.1.sm_70.ptx:4100) shfl.sync.idx.b32 %r824|%p569, %r8590, %r6047, %r6067, %r6068;
GPGPU-Sim PTX: 182 (potential) branch divergence @  PC=0x6810 (main.1.sm_70.ptx:4104) @%p4315 bra BB0_363;
GPGPU-Sim PTX:    immediate post dominator      @  PC=0x6878 (main.1.sm_70.ptx:4120) shfl.sync.idx.b32 %r828|%p573, %r8590, %r6038, %r6067, %r6068;
GPGPU-Sim PTX: 183 (potential) branch divergence @  PC=0x6898 (main.1.sm_70.ptx:4124) @%p4315 bra BB0_365;
GPGPU-Sim PTX:    immediate post dominator      @  PC=0x6900 (main.1.sm_70.ptx:4140) add.s32 %r24729, %r24729, 1;
GPGPU-Sim PTX: 184 (potential) branch divergence @  PC=0x6910 (main.1.sm_70.ptx:4142) @%p4319 bra BB0_357;
GPGPU-Sim PTX:    immediate post dominator      @  PC=0x6918 (main.1.sm_70.ptx:4144) xor.b32 %r8653, %r6029, 36;
GPGPU-Sim PTX: 185 (potential) branch divergence @  PC=0x69a0 (main.1.sm_70.ptx:4163) @%p4321 bra BB0_369;
GPGPU-Sim PTX:    immediate post dominator      @  PC=0x6a08 (main.1.sm_70.ptx:4179) shfl.sync.idx.b32 %r843|%p581, %r8662, %r6037, %r6067, %r6068;
GPGPU-Sim PTX: 186 (potential) branch divergence @  PC=0x6a28 (main.1.sm_70.ptx:4183) @%p4321 bra BB0_371;
GPGPU-Sim PTX:    immediate post dominator      @  PC=0x6a90 (main.1.sm_70.ptx:4199) shfl.sync.idx.b32 %r847|%p585, %r8662, %r6047, %r6067, %r6068;
GPGPU-Sim PTX: 187 (potential) branch divergence @  PC=0x6ab0 (main.1.sm_70.ptx:4203) @%p4321 bra BB0_373;
GPGPU-Sim PTX:    immediate post dominator      @  PC=0x6b18 (main.1.sm_70.ptx:4219) shfl.sync.idx.b32 %r851|%p589, %r8662, %r6038, %r6067, %r6068;
GPGPU-Sim PTX: 188 (potential) branch divergence @  PC=0x6b38 (main.1.sm_70.ptx:4223) @%p4321 bra BB0_375;
GPGPU-Sim PTX:    immediate post dominator      @  PC=0x6ba0 (main.1.sm_70.ptx:4239) add.s32 %r24730, %r24730, 1;
GPGPU-Sim PTX: 189 (potential) branch divergence @  PC=0x6bb0 (main.1.sm_70.ptx:4241) @%p4325 bra BB0_367;
GPGPU-Sim PTX:    immediate post dominator      @  PC=0x6bb8 (main.1.sm_70.ptx:4243) xor.b32 %r8725, %r6029, 37;
GPGPU-Sim PTX: 190 (potential) branch divergence @  PC=0x6c40 (main.1.sm_70.ptx:4262) @%p4327 bra BB0_379;
GPGPU-Sim PTX:    immediate post dominator      @  PC=0x6ca8 (main.1.sm_70.ptx:4278) shfl.sync.idx.b32 %r866|%p597, %r8734, %r6037, %r6067, %r6068;
GPGPU-Sim PTX: 191 (potential) branch divergence @  PC=0x6cc8 (main.1.sm_70.ptx:4282) @%p4327 bra BB0_381;
GPGPU-Sim PTX:    immediate post dominator      @  PC=0x6d30 (main.1.sm_70.ptx:4298) shfl.sync.idx.b32 %r870|%p601, %r8734, %r6047, %r6067, %r6068;
GPGPU-Sim PTX: 192 (potential) branch divergence @  PC=0x6d50 (main.1.sm_70.ptx:4302) @%p4327 bra BB0_383;
GPGPU-Sim PTX:    immediate post dominator      @  PC=0x6db8 (main.1.sm_70.ptx:4318) shfl.sync.idx.b32 %r874|%p605, %r8734, %r6038, %r6067, %r6068;
GPGPU-Sim PTX: 193 (potential) branch divergence @  PC=0x6dd8 (main.1.sm_70.ptx:4322) @%p4327 bra BB0_385;
GPGPU-Sim PTX:    immediate post dominator      @  PC=0x6e40 (main.1.sm_70.ptx:4338) add.s32 %r24731, %r24731, 1;
GPGPU-Sim PTX: 194 (potential) branch divergence @  PC=0x6e50 (main.1.sm_70.ptx:4340) @%p4331 bra BB0_377;
GPGPU-Sim PTX:    immediate post dominator      @  PC=0x6e58 (main.1.sm_70.ptx:4342) xor.b32 %r8797, %r6029, 38;
GPGPU-Sim PTX: 195 (potential) branch divergence @  PC=0x6ee0 (main.1.sm_70.ptx:4361) @%p4333 bra BB0_389;
GPGPU-Sim PTX:    immediate post dominator      @  PC=0x6f48 (main.1.sm_70.ptx:4377) shfl.sync.idx.b32 %r889|%p613, %r8806, %r6037, %r6067, %r6068;
GPGPU-Sim PTX: 196 (potential) branch divergence @  PC=0x6f68 (main.1.sm_70.ptx:4381) @%p4333 bra BB0_391;
GPGPU-Sim PTX:    immediate post dominator      @  PC=0x6fd0 (main.1.sm_70.ptx:4397) shfl.sync.idx.b32 %r893|%p617, %r8806, %r6047, %r6067, %r6068;
GPGPU-Sim PTX: 197 (potential) branch divergence @  PC=0x6ff0 (main.1.sm_70.ptx:4401) @%p4333 bra BB0_393;
GPGPU-Sim PTX:    immediate post dominator      @  PC=0x7058 (main.1.sm_70.ptx:4417) shfl.sync.idx.b32 %r897|%p621, %r8806, %r6038, %r6067, %r6068;
GPGPU-Sim PTX: 198 (potential) branch divergence @  PC=0x7078 (main.1.sm_70.ptx:4421) @%p4333 bra BB0_395;
GPGPU-Sim PTX:    immediate post dominator      @  PC=0x70e0 (main.1.sm_70.ptx:4437) add.s32 %r24732, %r24732, 1;
GPGPU-Sim PTX: 199 (potential) branch divergence @  PC=0x70f0 (main.1.sm_70.ptx:4439) @%p4337 bra BB0_387;
GPGPU-Sim PTX:    immediate post dominator      @  PC=0x70f8 (main.1.sm_70.ptx:4441) xor.b32 %r8869, %r6029, 39;
GPGPU-Sim PTX: 200 (potential) branch divergence @  PC=0x7180 (main.1.sm_70.ptx:4460) @%p4339 bra BB0_399;
GPGPU-Sim PTX:    immediate post dominator      @  PC=0x71e8 (main.1.sm_70.ptx:4476) shfl.sync.idx.b32 %r912|%p629, %r8878, %r6037, %r6067, %r6068;
GPGPU-Sim PTX: 201 (potential) branch divergence @  PC=0x7208 (main.1.sm_70.ptx:4480) @%p4339 bra BB0_401;
GPGPU-Sim PTX:    immediate post dominator      @  PC=0x7270 (main.1.sm_70.ptx:4496) shfl.sync.idx.b32 %r916|%p633, %r8878, %r6047, %r6067, %r6068;
GPGPU-Sim PTX: 202 (potential) branch divergence @  PC=0x7290 (main.1.sm_70.ptx:4500) @%p4339 bra BB0_403;
GPGPU-Sim PTX:    immediate post dominator      @  PC=0x72f8 (main.1.sm_70.ptx:4516) shfl.sync.idx.b32 %r920|%p637, %r8878, %r6038, %r6067, %r6068;
GPGPU-Sim PTX: 203 (potential) branch divergence @  PC=0x7318 (main.1.sm_70.ptx:4520) @%p4339 bra BB0_405;
GPGPU-Sim PTX:    immediate post dominator      @  PC=0x7380 (main.1.sm_70.ptx:4536) add.s32 %r24733, %r24733, 1;
GPGPU-Sim PTX: 204 (potential) branch divergence @  PC=0x7390 (main.1.sm_70.ptx:4538) @%p4343 bra BB0_397;
GPGPU-Sim PTX:    immediate post dominator      @  PC=0x7398 (main.1.sm_70.ptx:4540) xor.b32 %r8941, %r6029, 40;
GPGPU-Sim PTX: 205 (potential) branch divergence @  PC=0x7420 (main.1.sm_70.ptx:4559) @%p4345 bra BB0_409;
GPGPU-Sim PTX:    immediate post dominator      @  PC=0x7488 (main.1.sm_70.ptx:4575) shfl.sync.idx.b32 %r935|%p645, %r8950, %r6037, %r6067, %r6068;
GPGPU-Sim PTX: 206 (potential) branch divergence @  PC=0x74a8 (main.1.sm_70.ptx:4579) @%p4345 bra BB0_411;
GPGPU-Sim PTX:    immediate post dominator      @  PC=0x7510 (main.1.sm_70.ptx:4595) shfl.sync.idx.b32 %r939|%p649, %r8950, %r6047, %r6067, %r6068;
GPGPU-Sim PTX: 207 (potential) branch divergence @  PC=0x7530 (main.1.sm_70.ptx:4599) @%p4345 bra BB0_413;
GPGPU-Sim PTX:    immediate post dominator      @  PC=0x7598 (main.1.sm_70.ptx:4615) shfl.sync.idx.b32 %r943|%p653, %r8950, %r6038, %r6067, %r6068;
GPGPU-Sim PTX: 208 (potential) branch divergence @  PC=0x75b8 (main.1.sm_70.ptx:4619) @%p4345 bra BB0_415;
GPGPU-Sim PTX:    immediate post dominator      @  PC=0x7620 (main.1.sm_70.ptx:4635) add.s32 %r24734, %r24734, 1;
GPGPU-Sim PTX: 209 (potential) branch divergence @  PC=0x7630 (main.1.sm_70.ptx:4637) @%p4349 bra BB0_407;
GPGPU-Sim PTX:    immediate post dominator      @  PC=0x7638 (main.1.sm_70.ptx:4639) xor.b32 %r9013, %r6029, 41;
GPGPU-Sim PTX: 210 (potential) branch divergence @  PC=0x76c0 (main.1.sm_70.ptx:4658) @%p4351 bra BB0_419;
GPGPU-Sim PTX:    immediate post dominator      @  PC=0x7728 (main.1.sm_70.ptx:4674) shfl.sync.idx.b32 %r958|%p661, %r9022, %r6037, %r6067, %r6068;
GPGPU-Sim PTX: 211 (potential) branch divergence @  PC=0x7748 (main.1.sm_70.ptx:4678) @%p4351 bra BB0_421;
GPGPU-Sim PTX:    immediate post dominator      @  PC=0x77b0 (main.1.sm_70.ptx:4694) shfl.sync.idx.b32 %r962|%p665, %r9022, %r6047, %r6067, %r6068;
GPGPU-Sim PTX: 212 (potential) branch divergence @  PC=0x77d0 (main.1.sm_70.ptx:4698) @%p4351 bra BB0_423;
GPGPU-Sim PTX:    immediate post dominator      @  PC=0x7838 (main.1.sm_70.ptx:4714) shfl.sync.idx.b32 %r966|%p669, %r9022, %r6038, %r6067, %r6068;
GPGPU-Sim PTX: 213 (potential) branch divergence @  PC=0x7858 (main.1.sm_70.ptx:4718) @%p4351 bra BB0_425;
GPGPU-Sim PTX:    immediate post dominator      @  PC=0x78c0 (main.1.sm_70.ptx:4734) add.s32 %r24735, %r24735, 1;
GPGPU-Sim PTX: 214 (potential) branch divergence @  PC=0x78d0 (main.1.sm_70.ptx:4736) @%p4355 bra BB0_417;
GPGPU-Sim PTX:    immediate post dominator      @  PC=0x78d8 (main.1.sm_70.ptx:4738) xor.b32 %r9085, %r6029, 42;
GPGPU-Sim PTX: 215 (potential) branch divergence @  PC=0x7960 (main.1.sm_70.ptx:4757) @%p4357 bra BB0_429;
GPGPU-Sim PTX:    immediate post dominator      @  PC=0x79c8 (main.1.sm_70.ptx:4773) shfl.sync.idx.b32 %r981|%p677, %r9094, %r6037, %r6067, %r6068;
GPGPU-Sim PTX: 216 (potential) branch divergence @  PC=0x79e8 (main.1.sm_70.ptx:4777) @%p4357 bra BB0_431;
GPGPU-Sim PTX:    immediate post dominator      @  PC=0x7a50 (main.1.sm_70.ptx:4793) shfl.sync.idx.b32 %r985|%p681, %r9094, %r6047, %r6067, %r6068;
GPGPU-Sim PTX: 217 (potential) branch divergence @  PC=0x7a70 (main.1.sm_70.ptx:4797) @%p4357 bra BB0_433;
GPGPU-Sim PTX:    immediate post dominator      @  PC=0x7ad8 (main.1.sm_70.ptx:4813) shfl.sync.idx.b32 %r989|%p685, %r9094, %r6038, %r6067, %r6068;
GPGPU-Sim PTX: 218 (potential) branch divergence @  PC=0x7af8 (main.1.sm_70.ptx:4817) @%p4357 bra BB0_435;
GPGPU-Sim PTX:    immediate post dominator      @  PC=0x7b60 (main.1.sm_70.ptx:4833) add.s32 %r24736, %r24736, 1;
GPGPU-Sim PTX: 219 (potential) branch divergence @  PC=0x7b70 (main.1.sm_70.ptx:4835) @%p4361 bra BB0_427;
GPGPU-Sim PTX:    immediate post dominator      @  PC=0x7b78 (main.1.sm_70.ptx:4837) xor.b32 %r9157, %r6029, 43;
GPGPU-Sim PTX: 220 (potential) branch divergence @  PC=0x7c00 (main.1.sm_70.ptx:4856) @%p4363 bra BB0_439;
[...]
Cache L2_bank_056:
MSHR contents

Cache L2_bank_057:
MSHR contents

In Dram Latency Queue (total = 0): 
DRAM[28]: 16 bks, busW=16 BL=2 CL=12, tRRD=3 tCCD=1, tRCD=12 tRAS=28 tRP=12 tRC=40
n_cmd=672315 n_nop=672185 n_act=2 n_pre=0 n_ref_event=0 n_req=128 n_rd=128 n_rd_L2_A=0 n_write=0 n_wr_bk=0 bw_util=0.0001904
n_activity=368 dram_eff=0.3478
bk0: 64a 672245i bk1: 64a 672243i bk2: 0a 672315i bk3: 0a 672315i bk4: 0a 672315i bk5: 0a 672315i bk6: 0a 672315i bk7: 0a 672315i bk8: 0a 672315i bk9: 0a 672315i bk10: 0a 672315i bk11: 0a 672315i bk12: 0a 672315i bk13: 0a 672315i bk14: 0a 672315i bk15: 0a 672315i 

------------------------------------------------------------------------

Row_Buffer_Locality = 0.984375
Row_Buffer_Locality_read = 0.984375
Row_Buffer_Locality_write = -nan
Bank_Level_Parallism = 1.000000
Bank_Level_Parallism_Col = 1.000000
Bank_Level_Parallism_Ready = 1.000000
write_to_read_ratio_blp_rw_average = 0.000000
GrpLevelPara = 1.000000 

BW Util details:
bwutil = 0.000190 
total_CMD = 672315 
util_bw = 128 
Wasted_Col = 142 
Wasted_Row = 0 
Idle = 672045 

BW Util Bottlenecks: 
RCDc_limit = 24 
RCDWRc_limit = 0 
WTRc_limit = 0 
RTWc_limit = 0 
CCDLc_limit = 118 
rwq = 0 
CCDLc_limit_alone = 118 
WTRc_limit_alone = 0 
RTWc_limit_alone = 0 

Commands details: 
total_CMD = 672315 
n_nop = 672185 
Read = 128 
Write = 0 
L2_Alloc = 0 
L2_WB = 0 
n_act = 2 
n_pre = 0 
n_ref = 0 
n_req = 128 
total_req = 128 

Dual Bus Interface Util: 
issued_total_row = 2 
issued_total_col = 128 
Row_Bus_Util =  0.000003 
CoL_Bus_Util = 0.000190 
Either_Row_CoL_Bus_Util = 0.000193 
Issued_on_Two_Bus_Simul_Util = 0.000000 
issued_two_Eff = 0.000000 
queue_avg = 0.001743 


dram_util_bins: 0 0 0 0 0 0 0 0 0 0
dram_eff_bins: 0 0 0 0 0 0 0 0 0 0
mrqq: max=13 avg=0.00174323
Memory Partition 29: 
Cache L2_bank_058:
MSHR contents

Cache L2_bank_059:
MSHR contents

In Dram Latency Queue (total = 0): 
DRAM[29]: 16 bks, busW=16 BL=2 CL=12, tRRD=3 tCCD=1, tRCD=12 tRAS=28 tRP=12 tRC=40
n_cmd=672315 n_nop=672185 n_act=2 n_pre=0 n_ref_event=0 n_req=128 n_rd=128 n_rd_L2_A=0 n_write=0 n_wr_bk=0 bw_util=0.0001904
n_activity=368 dram_eff=0.3478
bk0: 64a 672244i bk1: 64a 672243i bk2: 0a 672315i bk3: 0a 672315i bk4: 0a 672315i bk5: 0a 672315i bk6: 0a 672315i bk7: 0a 672315i bk8: 0a 672315i bk9: 0a 672315i bk10: 0a 672315i bk11: 0a 672315i bk12: 0a 672315i bk13: 0a 672315i bk14: 0a 672315i bk15: 0a 672315i 

------------------------------------------------------------------------

Row_Buffer_Locality = 0.984375
Row_Buffer_Locality_read = 0.984375
Row_Buffer_Locality_write = -nan
Bank_Level_Parallism = 1.000000
Bank_Level_Parallism_Col = 1.000000
Bank_Level_Parallism_Ready = 1.000000
write_to_read_ratio_blp_rw_average = 0.000000
GrpLevelPara = 1.000000 

BW Util details:
bwutil = 0.000190 
total_CMD = 672315 
util_bw = 128 
Wasted_Col = 143 
Wasted_Row = 0 
Idle = 672044 

BW Util Bottlenecks: 
RCDc_limit = 24 
RCDWRc_limit = 0 
WTRc_limit = 0 
RTWc_limit = 0 
CCDLc_limit = 119 
rwq = 0 
CCDLc_limit_alone = 119 
WTRc_limit_alone = 0 
RTWc_limit_alone = 0 

Commands details: 
total_CMD = 672315 
n_nop = 672185 
Read = 128 
Write = 0 
L2_Alloc = 0 
L2_WB = 0 
n_act = 2 
n_pre = 0 
n_ref = 0 
n_req = 128 
total_req = 128 

Dual Bus Interface Util: 
issued_total_row = 2 
issued_total_col = 128 
Row_Bus_Util =  0.000003 
CoL_Bus_Util = 0.000190 
Either_Row_CoL_Bus_Util = 0.000193 
Issued_on_Two_Bus_Simul_Util = 0.000000 
issued_two_Eff = 0.000000 
queue_avg = 0.001658 


dram_util_bins: 0 0 0 0 0 0 0 0 0 0
dram_eff_bins: 0 0 0 0 0 0 0 0 0 0
mrqq: max=13 avg=0.00165845
Memory Partition 30: 
Cache L2_bank_060:
MSHR contents

Cache L2_bank_061:
MSHR contents

In Dram Latency Queue (total = 0): 
DRAM[30]: 16 bks, busW=16 BL=2 CL=12, tRRD=3 tCCD=1, tRCD=12 tRAS=28 tRP=12 tRC=40
n_cmd=672315 n_nop=672185 n_act=2 n_pre=0 n_ref_event=0 n_req=128 n_rd=128 n_rd_L2_A=0 n_write=0 n_wr_bk=0 bw_util=0.0001904
n_activity=368 dram_eff=0.3478
bk0: 64a 672243i bk1: 64a 672243i bk2: 0a 672315i bk3: 0a 672315i bk4: 0a 672315i bk5: 0a 672315i bk6: 0a 672315i bk7: 0a 672315i bk8: 0a 672315i bk9: 0a 672315i bk10: 0a 672315i bk11: 0a 672315i bk12: 0a 672315i bk13: 0a 672315i bk14: 0a 672315i bk15: 0a 672315i 

------------------------------------------------------------------------

Row_Buffer_Locality = 0.984375
Row_Buffer_Locality_read = 0.984375
Row_Buffer_Locality_write = -nan
Bank_Level_Parallism = 1.000000
Bank_Level_Parallism_Col = 1.000000
Bank_Level_Parallism_Ready = 1.000000
write_to_read_ratio_blp_rw_average = 0.000000
GrpLevelPara = 1.000000 

BW Util details:
bwutil = 0.000190 
total_CMD = 672315 
util_bw = 128 
Wasted_Col = 144 
Wasted_Row = 0 
Idle = 672043 

BW Util Bottlenecks: 
RCDc_limit = 24 
RCDWRc_limit = 0 
WTRc_limit = 0 
RTWc_limit = 0 
CCDLc_limit = 120 
rwq = 0 
CCDLc_limit_alone = 120 
WTRc_limit_alone = 0 
RTWc_limit_alone = 0 

Commands details: 
total_CMD = 672315 
n_nop = 672185 
Read = 128 
Write = 0 
L2_Alloc = 0 
L2_WB = 0 
n_act = 2 
n_pre = 0 
n_ref = 0 
n_req = 128 
total_req = 128 

Dual Bus Interface Util: 
issued_total_row = 2 
issued_total_col = 128 
Row_Bus_Util =  0.000003 
CoL_Bus_Util = 0.000190 
Either_Row_CoL_Bus_Util = 0.000193 
Issued_on_Two_Bus_Simul_Util = 0.000000 
issued_two_Eff = 0.000000 
queue_avg = 0.001743 


dram_util_bins: 0 0 0 0 0 0 0 0 0 0
dram_eff_bins: 0 0 0 0 0 0 0 0 0 0
mrqq: max=13 avg=0.00174323
Memory Partition 31: 
Cache L2_bank_062:
MSHR contents

Cache L2_bank_063:
MSHR contents

In Dram Latency Queue (total = 0): 
DRAM[31]: 16 bks, busW=16 BL=2 CL=12, tRRD=3 tCCD=1, tRCD=12 tRAS=28 tRP=12 tRC=40
n_cmd=672315 n_nop=672185 n_act=2 n_pre=0 n_ref_event=0 n_req=128 n_rd=128 n_rd_L2_A=0 n_write=0 n_wr_bk=0 bw_util=0.0001904
n_activity=368 dram_eff=0.3478
bk0: 64a 672243i bk1: 64a 672243i bk2: 0a 672315i bk3: 0a 672315i bk4: 0a 672315i bk5: 0a 672315i bk6: 0a 672315i bk7: 0a 672315i bk8: 0a 672315i bk9: 0a 672315i bk10: 0a 672315i bk11: 0a 672315i bk12: 0a 672315i bk13: 0a 672315i bk14: 0a 672315i bk15: 0a 672315i 

------------------------------------------------------------------------

Row_Buffer_Locality = 0.984375
Row_Buffer_Locality_read = 0.984375
Row_Buffer_Locality_write = -nan
Bank_Level_Parallism = 1.000000
Bank_Level_Parallism_Col = 1.000000
Bank_Level_Parallism_Ready = 1.000000
write_to_read_ratio_blp_rw_average = 0.000000
GrpLevelPara = 1.000000 

BW Util details:
bwutil = 0.000190 
total_CMD = 672315 
util_bw = 128 
Wasted_Col = 144 
Wasted_Row = 0 
Idle = 672043 

BW Util Bottlenecks: 
RCDc_limit = 24 
RCDWRc_limit = 0 
WTRc_limit = 0 
RTWc_limit = 0 
CCDLc_limit = 120 
rwq = 0 
CCDLc_limit_alone = 120 
WTRc_limit_alone = 0 
RTWc_limit_alone = 0 

Commands details: 
total_CMD = 672315 
n_nop = 672185 
Read = 128 
Write = 0 
L2_Alloc = 0 
L2_WB = 0 
n_act = 2 
n_pre = 0 
n_ref = 0 
n_req = 128 
total_req = 128 

Dual Bus Interface Util: 
issued_total_row = 2 
issued_total_col = 128 
Row_Bus_Util =  0.000003 
CoL_Bus_Util = 0.000190 
Either_Row_CoL_Bus_Util = 0.000193 
Issued_on_Two_Bus_Simul_Util = 0.000000 
issued_two_Eff = 0.000000 
queue_avg = 0.001785 


dram_util_bins: 0 0 0 0 0 0 0 0 0 0
dram_eff_bins: 0 0 0 0 0 0 0 0 0 0
mrqq: max=13 avg=0.00178488

========= L2 cache stats =========
L2_cache_bank[0]: Access = 82, Miss = 64, Miss_rate = 0.780, Pending_hits = 0, Reservation_fails = 0
L2_cache_bank[1]: Access = 64, Miss = 64, Miss_rate = 1.000, Pending_hits = 0, Reservation_fails = 0
L2_cache_bank[2]: Access = 64, Miss = 64, Miss_rate = 1.000, Pending_hits = 0, Reservation_fails = 0
L2_cache_bank[3]: Access = 64, Miss = 64, Miss_rate = 1.000, Pending_hits = 0, Reservation_fails = 0
L2_cache_bank[4]: Access = 64, Miss = 64, Miss_rate = 1.000, Pending_hits = 0, Reservation_fails = 0
L2_cache_bank[5]: Access = 64, Miss = 64, Miss_rate = 1.000, Pending_hits = 0, Reservation_fails = 0
L2_cache_bank[6]: Access = 64, Miss = 64, Miss_rate = 1.000, Pending_hits = 0, Reservation_fails = 0
L2_cache_bank[7]: Access = 64, Miss = 64, Miss_rate = 1.000, Pending_hits = 0, Reservation_fails = 0
L2_cache_bank[8]: Access = 64, Miss = 64, Miss_rate = 1.000, Pending_hits = 0, Reservation_fails = 0
L2_cache_bank[9]: Access = 64, Miss = 64, Miss_rate = 1.000, Pending_hits = 0, Reservation_fails = 0
L2_cache_bank[10]: Access = 64, Miss = 64, Miss_rate = 1.000, Pending_hits = 0, Reservation_fails = 0
L2_cache_bank[11]: Access = 64, Miss = 64, Miss_rate = 1.000, Pending_hits = 0, Reservation_fails = 0
L2_cache_bank[12]: Access = 64, Miss = 64, Miss_rate = 1.000, Pending_hits = 0, Reservation_fails = 0
L2_cache_bank[13]: Access = 64, Miss = 64, Miss_rate = 1.000, Pending_hits = 0, Reservation_fails = 0
L2_cache_bank[14]: Access = 64, Miss = 64, Miss_rate = 1.000, Pending_hits = 0, Reservation_fails = 0
L2_cache_bank[15]: Access = 64, Miss = 64, Miss_rate = 1.000, Pending_hits = 0, Reservation_fails = 0
L2_cache_bank[16]: Access = 64, Miss = 64, Miss_rate = 1.000, Pending_hits = 0, Reservation_fails = 0
L2_cache_bank[17]: Access = 64, Miss = 64, Miss_rate = 1.000, Pending_hits = 0, Reservation_fails = 0
L2_cache_bank[18]: Access = 64, Miss = 64, Miss_rate = 1.000, Pending_hits = 0, Reservation_fails = 0
L2_cache_bank[19]: Access = 64, Miss = 64, Miss_rate = 1.000, Pending_hits = 0, Reservation_fails = 0
L2_cache_bank[20]: Access = 64, Miss = 64, Miss_rate = 1.000, Pending_hits = 0, Reservation_fails = 0
L2_cache_bank[21]: Access = 64, Miss = 64, Miss_rate = 1.000, Pending_hits = 0, Reservation_fails = 0
L2_cache_bank[22]: Access = 64, Miss = 64, Miss_rate = 1.000, Pending_hits = 0, Reservation_fails = 0
L2_cache_bank[23]: Access = 64, Miss = 64, Miss_rate = 1.000, Pending_hits = 0, Reservation_fails = 0
L2_cache_bank[24]: Access = 64, Miss = 64, Miss_rate = 1.000, Pending_hits = 0, Reservation_fails = 0
L2_cache_bank[25]: Access = 64, Miss = 64, Miss_rate = 1.000, Pending_hits = 0, Reservation_fails = 0
L2_cache_bank[26]: Access = 64, Miss = 64, Miss_rate = 1.000, Pending_hits = 0, Reservation_fails = 0
L2_cache_bank[27]: Access = 64, Miss = 64, Miss_rate = 1.000, Pending_hits = 0, Reservation_fails = 0
L2_cache_bank[28]: Access = 64, Miss = 64, Miss_rate = 1.000, Pending_hits = 0, Reservation_fails = 0
L2_cache_bank[29]: Access = 64, Miss = 64, Miss_rate = 1.000, Pending_hits = 0, Reservation_fails = 0
L2_cache_bank[30]: Access = 64, Miss = 64, Miss_rate = 1.000, Pending_hits = 0, Reservation_fails = 0
L2_cache_bank[31]: Access = 64, Miss = 64, Miss_rate = 1.000, Pending_hits = 0, Reservation_fails = 0
L2_cache_bank[32]: Access = 64, Miss = 64, Miss_rate = 1.000, Pending_hits = 0, Reservation_fails = 0
L2_cache_bank[33]: Access = 64, Miss = 64, Miss_rate = 1.000, Pending_hits = 0, Reservation_fails = 0
L2_cache_bank[34]: Access = 64, Miss = 64, Miss_rate = 1.000, Pending_hits = 0, Reservation_fails = 0
L2_cache_bank[35]: Access = 64, Miss = 64, Miss_rate = 1.000, Pending_hits = 0, Reservation_fails = 0
L2_cache_bank[36]: Access = 64, Miss = 64, Miss_rate = 1.000, Pending_hits = 0, Reservation_fails = 0
L2_cache_bank[37]: Access = 64, Miss = 64, Miss_rate = 1.000, Pending_hits = 0, Reservation_fails = 0
L2_cache_bank[38]: Access = 64, Miss = 64, Miss_rate = 1.000, Pending_hits = 0, Reservation_fails = 0
L2_cache_bank[39]: Access = 64, Miss = 64, Miss_rate = 1.000, Pending_hits = 0, Reservation_fails = 0
L2_cache_bank[40]: Access = 64, Miss = 64, Miss_rate = 1.000, Pending_hits = 0, Reservation_fails = 0
L2_cache_bank[41]: Access = 64, Miss = 64, Miss_rate = 1.000, Pending_hits = 0, Reservation_fails = 0
L2_cache_bank[42]: Access = 64, Miss = 64, Miss_rate = 1.000, Pending_hits = 0, Reservation_fails = 0
L2_cache_bank[43]: Access = 64, Miss = 64, Miss_rate = 1.000, Pending_hits = 0, Reservation_fails = 0
L2_cache_bank[44]: Access = 64, Miss = 64, Miss_rate = 1.000, Pending_hits = 0, Reservation_fails = 0
L2_cache_bank[45]: Access = 64, Miss = 64, Miss_rate = 1.000, Pending_hits = 0, Reservation_fails = 0
L2_cache_bank[46]: Access = 64, Miss = 64, Miss_rate = 1.000, Pending_hits = 0, Reservation_fails = 0
L2_cache_bank[47]: Access = 64, Miss = 64, Miss_rate = 1.000, Pending_hits = 0, Reservation_fails = 0
L2_cache_bank[48]: Access = 64, Miss = 64, Miss_rate = 1.000, Pending_hits = 0, Reservation_fails = 0
L2_cache_bank[49]: Access = 64, Miss = 64, Miss_rate = 1.000, Pending_hits = 0, Reservation_fails = 0
L2_cache_bank[50]: Access = 64, Miss = 64, Miss_rate = 1.000, Pending_hits = 0, Reservation_fails = 0
L2_cache_bank[51]: Access = 64, Miss = 64, Miss_rate = 1.000, Pending_hits = 0, Reservation_fails = 0
L2_cache_bank[52]: Access = 64, Miss = 64, Miss_rate = 1.000, Pending_hits = 0, Reservation_fails = 0
L2_cache_bank[53]: Access = 64, Miss = 64, Miss_rate = 1.000, Pending_hits = 0, Reservation_fails = 0
L2_cache_bank[54]: Access = 64, Miss = 64, Miss_rate = 1.000, Pending_hits = 0, Reservation_fails = 0
L2_cache_bank[55]: Access = 64, Miss = 64, Miss_rate = 1.000, Pending_hits = 0, Reservation_fails = 0
L2_cache_bank[56]: Access = 64, Miss = 64, Miss_rate = 1.000, Pending_hits = 0, Reservation_fails = 0
L2_cache_bank[57]: Access = 64, Miss = 64, Miss_rate = 1.000, Pending_hits = 0, Reservation_fails = 0
L2_cache_bank[58]: Access = 64, Miss = 64, Miss_rate = 1.000, Pending_hits = 0, Reservation_fails = 0
L2_cache_bank[59]: Access = 64, Miss = 64, Miss_rate = 1.000, Pending_hits = 0, Reservation_fails = 0
L2_cache_bank[60]: Access = 64, Miss = 64, Miss_rate = 1.000, Pending_hits = 0, Reservation_fails = 0
L2_cache_bank[61]: Access = 64, Miss = 64, Miss_rate = 1.000, Pending_hits = 0, Reservation_fails = 0
L2_cache_bank[62]: Access = 64, Miss = 64, Miss_rate = 1.000, Pending_hits = 0, Reservation_fails = 0
L2_cache_bank[63]: Access = 64, Miss = 64, Miss_rate = 1.000, Pending_hits = 0, Reservation_fails = 0
L2_total_cache_accesses = 4114
L2_total_cache_misses = 4096
L2_total_cache_miss_rate = 0.9956
L2_total_cache_pending_hits = 0
L2_total_cache_reservation_fails = 0
L2_total_cache_breakdown:
	L2_cache_stats_breakdown[GLOBAL_ACC_R][HIT] = 18
	L2_cache_stats_breakdown[GLOBAL_ACC_R][HIT_RESERVED] = 0
	L2_cache_stats_breakdown[GLOBAL_ACC_R][MISS] = 1024
	L2_cache_stats_breakdown[GLOBAL_ACC_R][RESERVATION_FAIL] = 0
	L2_cache_stats_breakdown[GLOBAL_ACC_R][SECTOR_MISS] = 3072
	L2_cache_stats_breakdown[LOCAL_ACC_R][HIT] = 0
	L2_cache_stats_breakdown[LOCAL_ACC_R][HIT_RESERVED] = 0
	L2_cache_stats_breakdown[LOCAL_ACC_R][MISS] = 0
	L2_cache_stats_breakdown[LOCAL_ACC_R][RESERVATION_FAIL] = 0
	L2_cache_stats_breakdown[LOCAL_ACC_R][SECTOR_MISS] = 0
	L2_cache_stats_breakdown[CONST_ACC_R][HIT] = 0
	L2_cache_stats_breakdown[CONST_ACC_R][HIT_RESERVED] = 0
	L2_cache_stats_breakdown[CONST_ACC_R][MISS] = 0
	L2_cache_stats_breakdown[CONST_ACC_R][RESERVATION_FAIL] = 0
	L2_cache_stats_breakdown[CONST_ACC_R][SECTOR_MISS] = 0
	L2_cache_stats_breakdown[TEXTURE_ACC_R][HIT] = 0
	L2_cache_stats_breakdown[TEXTURE_ACC_R][HIT_RESERVED] = 0
	L2_cache_stats_breakdown[TEXTURE_ACC_R][MISS] = 0
	L2_cache_stats_breakdown[TEXTURE_ACC_R][RESERVATION_FAIL] = 0
	L2_cache_stats_breakdown[TEXTURE_ACC_R][SECTOR_MISS] = 0
	L2_cache_stats_breakdown[GLOBAL_ACC_W][HIT] = 0
	L2_cache_stats_breakdown[GLOBAL_ACC_W][HIT_RESERVED] = 0
	L2_cache_stats_breakdown[GLOBAL_ACC_W][MISS] = 0
	L2_cache_stats_breakdown[GLOBAL_ACC_W][RESERVATION_FAIL] = 0
	L2_cache_stats_breakdown[GLOBAL_ACC_W][SECTOR_MISS] = 0
	L2_cache_stats_breakdown[LOCAL_ACC_W][HIT] = 0
	L2_cache_stats_breakdown[LOCAL_ACC_W][HIT_RESERVED] = 0
	L2_cache_stats_breakdown[LOCAL_ACC_W][MISS] = 0
	L2_cache_stats_breakdown[LOCAL_ACC_W][RESERVATION_FAIL] = 0
	L2_cache_stats_breakdown[LOCAL_ACC_W][SECTOR_MISS] = 0
	L2_cache_stats_breakdown[L1_WRBK_ACC][HIT] = 0
	L2_cache_stats_breakdown[L1_WRBK_ACC][HIT_RESERVED] = 0
	L2_cache_stats_breakdown[L1_WRBK_ACC][MISS] = 0
	L2_cache_stats_breakdown[L1_WRBK_ACC][RESERVATION_FAIL] = 0
	L2_cache_stats_breakdown[L1_WRBK_ACC][SECTOR_MISS] = 0
	L2_cache_stats_breakdown[L2_WRBK_ACC][HIT] = 0
	L2_cache_stats_breakdown[L2_WRBK_ACC][HIT_RESERVED] = 0
	L2_cache_stats_breakdown[L2_WRBK_ACC][MISS] = 0
	L2_cache_stats_breakdown[L2_WRBK_ACC][RESERVATION_FAIL] = 0
	L2_cache_stats_breakdown[L2_WRBK_ACC][SECTOR_MISS] = 0
	L2_cache_stats_breakdown[INST_ACC_R][HIT] = 0
	L2_cache_stats_breakdown[INST_ACC_R][HIT_RESERVED] = 0
	L2_cache_stats_breakdown[INST_ACC_R][MISS] = 0
	L2_cache_stats_breakdown[INST_ACC_R][RESERVATION_FAIL] = 0
	L2_cache_stats_breakdown[INST_ACC_R][SECTOR_MISS] = 0
	L2_cache_stats_breakdown[L1_WR_ALLOC_R][HIT] = 0
	L2_cache_stats_breakdown[L1_WR_ALLOC_R][HIT_RESERVED] = 0
	L2_cache_stats_breakdown[L1_WR_ALLOC_R][MISS] = 0
	L2_cache_stats_breakdown[L1_WR_ALLOC_R][RESERVATION_FAIL] = 0
	L2_cache_stats_breakdown[L1_WR_ALLOC_R][SECTOR_MISS] = 0
	L2_cache_stats_breakdown[L2_WR_ALLOC_R][HIT] = 0
	L2_cache_stats_breakdown[L2_WR_ALLOC_R][HIT_RESERVED] = 0
	L2_cache_stats_breakdown[L2_WR_ALLOC_R][MISS] = 0
	L2_cache_stats_breakdown[L2_WR_ALLOC_R][RESERVATION_FAIL] = 0
	L2_cache_stats_breakdown[L2_WR_ALLOC_R][SECTOR_MISS] = 0
	L2_cache_stats_breakdown[GLOBAL_ACC_R][TOTAL_ACCESS] = 4114
L2_total_cache_reservation_fail_breakdown:
L2_cache_data_port_util = 0.000
L2_cache_fill_port_util = 0.000

icnt_total_pkts_mem_to_simt=4114
icnt_total_pkts_simt_to_mem=4114
LD_mem_lat_dist  0 0 0 0 0 0 0 0 0 0 0 0 0 0 0 0 0 0 0 0 0 0 0 0 0 0 0
ST_mem_lat_dist  0 0 0 0 0 0 0 0 0 0 0 0 0 0 0 0 0 0 0 0 0 0 0 0 0 0 0
----------------------------Interconnect-DETAILS--------------------------------
Req_Network_injected_packets_num = 4114
Req_Network_cycles = 895367
Req_Network_injected_packets_per_cycle =       0.0046 
Req_Network_conflicts_per_cycle =       0.0102
Req_Network_conflicts_per_cycle_util =       2.7520
Req_Bank_Level_Parallism =       1.2354
Req_Network_in_buffer_full_per_cycle =       0.0000
Req_Network_in_buffer_avg_util =       0.0156
Req_Network_out_buffer_full_per_cycle =       0.0000
Req_Network_out_buffer_avg_util =       0.0001

Reply_Network_injected_packets_num = 4114
Reply_Network_cycles = 895367
Reply_Network_injected_packets_per_cycle =        0.0046
Reply_Network_conflicts_per_cycle =        0.0000
Reply_Network_conflicts_per_cycle_util =       0.0126
Reply_Bank_Level_Parallism =       1.7300
Reply_Network_in_buffer_full_per_cycle =       0.0000
Reply_Network_in_buffer_avg_util =       0.0000
Reply_Network_out_buffer_full_per_cycle =       0.0000
Reply_Network_out_buffer_avg_util =       0.0001
----------------------------END-of-Interconnect-DETAILS-------------------------


gpgpu_simulation_time = 0 days, 0 hrs, 33 min, 53 sec (2033 sec)
gpgpu_simulation_rate = 59336 (inst/sec)
gpgpu_simulation_rate = 440 (cycle/sec)
gpgpu_silicon_slowdown = 2572727x
GPGPU-Sim: detected inactive GPU simulation thread
GPGPU-Sim PTX: Setting up arguments for 4 bytes starting at 0x7ffc8a11f21c..
GPGPU-Sim PTX: Setting up arguments for 8 bytes starting at 0x7ffc8a11f210..
GPGPU-Sim PTX: Setting up arguments for 8 bytes starting at 0x7ffc8a11f208..
GPGPU-Sim PTX: Setting up arguments for 8 bytes starting at 0x7ffc8a11f200..
GPGPU-Sim PTX: Setting up arguments for 4 bytes starting at 0x7ffc8a11f218..

GPGPU-Sim PTX: cudaLaunch for 0x0x4123e6 (mode=performance simulation) on stream 1
GPGPU-Sim PTX: PDOM analysis already done for _Z25ethash_calculate_dag_itemjP8hash64_tmS0_j 
GPGPU-Sim PTX: pushing kernel '_Z25ethash_calculate_dag_itemjP8hash64_tmS0_j' to stream 1, gridDim= (4,1,1) blockDim = (256,1,1) 
GPGPU-Sim: synchronize waiting for inactive GPU simulation
GPGPU-Sim API: Stream Manager State
GPGPU-Sim API:    stream 1 has 1 operations
GPGPU-Sim API:       0 :  stream operation kernel
GPGPU-Sim uArch: Shader 8 bind to kernel 3 '_Z25ethash_calculate_dag_itemjP8hash64_tmS0_j'
GPGPU-Sim: Reconfigure L1 cache to 128KB
GPGPU-Sim uArch: Shader 9 bind to kernel 3 '_Z25ethash_calculate_dag_itemjP8hash64_tmS0_j'
GPGPU-Sim uArch: Shader 10 bind to kernel 3 '_Z25ethash_calculate_dag_itemjP8hash64_tmS0_j'
GPGPU-Sim uArch: Shader 11 bind to kernel 3 '_Z25ethash_calculate_dag_itemjP8hash64_tmS0_j'
