

        *** GPGPU-Sim Simulator Version 4.0.0  [build gpgpu-sim_git-commit-_modified_0.0] ***


GPGPU-Sim PTX: simulation mode 0 (can change with PTX_SIM_MODE_FUNC environment variable:
               1=functional simulation only, 0=detailed performance simulator)
GPGPU-Sim PTX: overriding embedded ptx with ptx file (PTX_SIM_USE_PTX_FILE is set)
GPGPU-Sim: Configuration options:

-save_embedded_ptx                      0 # saves ptx files embedded in binary as <n>.ptx
-keep                                   0 # keep intermediate files created by GPGPU-Sim when interfacing with external programs
-gpgpu_ptx_save_converted_ptxplus                    0 # Saved converted ptxplus to a file
-gpgpu_occupancy_sm_number                   70 # The SM number to pass to ptxas when getting register usage for computing GPU occupancy. This parameter is required in the config.
-ptx_opcode_latency_int      4,13,4,5,145,21 # Opcode latencies for integers <ADD,MAX,MUL,MAD,DIV,SHFL>Default 1,1,19,25,145,32
-ptx_opcode_latency_fp          4,13,4,5,39 # Opcode latencies for single precision floating points <ADD,MAX,MUL,MAD,DIV>Default 1,1,1,1,30
-ptx_opcode_latency_dp         8,19,8,8,330 # Opcode latencies for double precision floating points <ADD,MAX,MUL,MAD,DIV>Default 8,8,8,8,335
-ptx_opcode_latency_sfu                  100 # Opcode latencies for SFU instructionsDefault 8
-ptx_opcode_latency_tesnor                   64 # Opcode latencies for Tensor instructionsDefault 64
-ptx_opcode_initiation_int          2,2,2,2,8,4 # Opcode initiation intervals for integers <ADD,MAX,MUL,MAD,DIV,SHFL>Default 1,1,4,4,32,4
-ptx_opcode_initiation_fp            2,2,2,2,4 # Opcode initiation intervals for single precision floating points <ADD,MAX,MUL,MAD,DIV>Default 1,1,1,1,5
-ptx_opcode_initiation_dp          4,4,4,4,130 # Opcode initiation intervals for double precision floating points <ADD,MAX,MUL,MAD,DIV>Default 8,8,8,8,130
-ptx_opcode_initiation_sfu                    8 # Opcode initiation intervals for sfu instructionsDefault 8
-ptx_opcode_initiation_tensor                   64 # Opcode initiation intervals for tensor instructionsDefault 64
-cdp_latency         7200,8000,100,12000,1600 # CDP API latency <cudaStreamCreateWithFlags, cudaGetParameterBufferV2_init_perWarp, cudaGetParameterBufferV2_perKernel, cudaLaunchDeviceV2_init_perWarp, cudaLaunchDevicV2_perKernel>Default 7200,8000,100,12000,1600
-network_mode                           2 # Interconnection network mode
-inter_config_file                   mesh # Interconnection network config file
-icnt_in_buffer_limit                  512 # in_buffer_limit
-icnt_out_buffer_limit                  512 # out_buffer_limit
-icnt_subnets                           2 # subnets
-icnt_arbiter_algo                      1 # arbiter_algo
-icnt_verbose                           0 # inct_verbose
-icnt_grant_cycles                      1 # grant_cycles
-gpgpu_ptx_use_cuobjdump                    1 # Use cuobjdump to extract ptx and sass from binaries
-gpgpu_experimental_lib_support                    0 # Try to extract code from cuda libraries [Broken because of unknown cudaGetExportTable]
-checkpoint_option                      0 #  checkpointing flag (0 = no checkpoint)
-checkpoint_kernel                      1 #  checkpointing during execution of which kernel (1- 1st kernel)
-checkpoint_CTA                         0 #  checkpointing after # of CTA (< less than total CTA)
-resume_option                          0 #  resume flag (0 = no resume)
-resume_kernel                          0 #  Resume from which kernel (1= 1st kernel)
-resume_CTA                             0 #  resume from which CTA 
-checkpoint_CTA_t                       0 #  resume from which CTA 
-checkpoint_insn_Y                      0 #  resume from which CTA 
-gpgpu_ptx_convert_to_ptxplus                    0 # Convert SASS (native ISA) to ptxplus and run ptxplus
-gpgpu_ptx_force_max_capability                   70 # Force maximum compute capability
-gpgpu_ptx_inst_debug_to_file                    0 # Dump executed instructions' debug information to file
-gpgpu_ptx_inst_debug_file       inst_debug.txt # Executed instructions' debug output file
-gpgpu_ptx_inst_debug_thread_uid                    1 # Thread UID for executed instructions' debug output
-gpgpu_n_mem_for_l2wb_pcommit                   32 # number of memory modules (e.g. memory controllers) in gpu
-gpgpu_n_sub_partition_per_mchannel_for_l2wb_pcommit                    2 # number of memory subpartition in each memory module
-gpgpu_dl2_bsize_for_l2wb_pcommit                  128 # default 128 bytes
-gpgpu_simd_model                       1 # 1 = post-dominator
-gpgpu_shader_core_pipeline              2048:32 # shader core pipeline config, i.e., {<nthread>:<warpsize>}
-gpgpu_tex_cache:l1  N:4:128:256,L:R:m:N:L,T:512:8,128:2 # per-shader L1 texture cache  (READ-ONLY) config  {<nsets>:<bsize>:<assoc>,<rep>:<wr>:<alloc>:<wr_alloc>,<mshr>:<N>:<merge>,<mq>:<rf>}
-gpgpu_const_cache:l1 N:128:64:8,L:R:f:N:L,S:2:64,4 # per-shader L1 constant memory cache  (READ-ONLY) config  {<nsets>:<bsize>:<assoc>,<rep>:<wr>:<alloc>:<wr_alloc>,<mshr>:<N>:<merge>,<mq>} 
-gpgpu_cache:il1     N:64:128:16,L:R:f:N:L,S:2:48,4 # shader L1 instruction cache config  {<nsets>:<bsize>:<assoc>,<rep>:<wr>:<alloc>:<wr_alloc>,<mshr>:<N>:<merge>,<mq>} 
-gpgpu_cache:dl1     S:1:128:256,L:L:s:N:L,A:256:8,16:0,32 # per-shader L1 data cache config  {<nsets>:<bsize>:<assoc>,<rep>:<wr>:<alloc>:<wr_alloc>,<mshr>:<N>:<merge>,<mq> | none}
-gpgpu_l1_banks                         4 # The number of L1 cache banks
-gpgpu_l1_banks_byte_interleaving                   32 # l1 banks byte interleaving granularity
-gpgpu_l1_banks_hashing_function                    0 # l1 banks hashing function
-gpgpu_l1_latency                      20 # L1 Hit Latency
-gpgpu_smem_latency                    20 # smem Latency
-gpgpu_cache:dl1PrefL1                 none # per-shader L1 data cache config  {<nsets>:<bsize>:<assoc>,<rep>:<wr>:<alloc>:<wr_alloc>,<mshr>:<N>:<merge>,<mq> | none}
-gpgpu_cache:dl1PrefShared                 none # per-shader L1 data cache config  {<nsets>:<bsize>:<assoc>,<rep>:<wr>:<alloc>:<wr_alloc>,<mshr>:<N>:<merge>,<mq> | none}
-gpgpu_gmem_skip_L1D                    0 # global memory access skip L1D cache (implements -Xptxas -dlcm=cg, default=no skip)
-gpgpu_perfect_mem                      0 # enable perfect memory mode (no cache miss)
-n_regfile_gating_group                    4 # group of lanes that should be read/written together)
-gpgpu_clock_gated_reg_file                    0 # enable clock gated reg file for power calculations
-gpgpu_clock_gated_lanes                    0 # enable clock gated lanes for power calculations
-gpgpu_shader_registers                65536 # Number of registers per shader core. Limits number of concurrent CTAs. (default 8192)
-gpgpu_registers_per_block                65536 # Maximum number of registers per CTA. (default 8192)
-gpgpu_ignore_resources_limitation                    0 # gpgpu_ignore_resources_limitation (default 0)
-gpgpu_shader_cta                      32 # Maximum number of concurrent CTAs in shader (default 8)
-gpgpu_num_cta_barriers                   16 # Maximum number of named barriers per CTA (default 16)
-gpgpu_n_clusters                      80 # number of processing clusters
-gpgpu_n_cores_per_cluster                    1 # number of simd cores per cluster
-gpgpu_n_cluster_ejection_buffer_size                   32 # number of packets in ejection buffer
-gpgpu_n_ldst_response_buffer_size                    2 # number of response packets in ld/st unit ejection buffer
-gpgpu_shmem_per_block                65536 # Size of shared memory per thread block or CTA (default 48kB)
-gpgpu_shmem_size                   98304 # Size of shared memory per shader core (default 16kB)
-gpgpu_adaptive_cache_config            536870913 # adaptive_cache_config
-gpgpu_shmem_sizeDefault                98304 # Size of shared memory per shader core (default 16kB)
-gpgpu_shmem_size_PrefL1                16384 # Size of shared memory per shader core (default 16kB)
-gpgpu_shmem_size_PrefShared                16384 # Size of shared memory per shader core (default 16kB)
-gpgpu_shmem_num_banks                   32 # Number of banks in the shared memory in each shader core (default 16)
-gpgpu_shmem_limited_broadcast                    0 # Limit shared memory to do one broadcast per cycle (default on)
-gpgpu_shmem_warp_parts                    1 # Number of portions a warp is divided into for shared memory bank conflict check 
-gpgpu_mem_unit_ports                    1 # The number of memory transactions allowed per core cycle
-gpgpu_shmem_warp_parts                    1 # Number of portions a warp is divided into for shared memory bank conflict check 
-gpgpu_warpdistro_shader                   -1 # Specify which shader core to collect the warp size distribution from
-gpgpu_warp_issue_shader                    0 # Specify which shader core to collect the warp issue distribution from
-gpgpu_local_mem_map                    1 # Mapping from local memory space address to simulated GPU physical address space (default = enabled)
-gpgpu_num_reg_banks                   16 # Number of register banks (default = 8)
-gpgpu_reg_bank_use_warp_id                    0 # Use warp ID in mapping registers to banks (default = off)
-gpgpu_sub_core_model                    1 # Sub Core Volta/Pascal model (default = off)
-gpgpu_enable_specialized_operand_collector                    0 # enable_specialized_operand_collector
-gpgpu_operand_collector_num_units_sp                    4 # number of collector units (default = 4)
-gpgpu_operand_collector_num_units_dp                    0 # number of collector units (default = 0)
-gpgpu_operand_collector_num_units_sfu                    4 # number of collector units (default = 4)
-gpgpu_operand_collector_num_units_int                    0 # number of collector units (default = 0)
-gpgpu_operand_collector_num_units_tensor_core                    4 # number of collector units (default = 4)
-gpgpu_operand_collector_num_units_mem                    2 # number of collector units (default = 2)
-gpgpu_operand_collector_num_units_gen                    8 # number of collector units (default = 0)
-gpgpu_operand_collector_num_in_ports_sp                    1 # number of collector unit in ports (default = 1)
-gpgpu_operand_collector_num_in_ports_dp                    0 # number of collector unit in ports (default = 0)
-gpgpu_operand_collector_num_in_ports_sfu                    1 # number of collector unit in ports (default = 1)
-gpgpu_operand_collector_num_in_ports_int                    0 # number of collector unit in ports (default = 0)
-gpgpu_operand_collector_num_in_ports_tensor_core                    1 # number of collector unit in ports (default = 1)
-gpgpu_operand_collector_num_in_ports_mem                    1 # number of collector unit in ports (default = 1)
-gpgpu_operand_collector_num_in_ports_gen                    8 # number of collector unit in ports (default = 0)
-gpgpu_operand_collector_num_out_ports_sp                    1 # number of collector unit in ports (default = 1)
-gpgpu_operand_collector_num_out_ports_dp                    0 # number of collector unit in ports (default = 0)
-gpgpu_operand_collector_num_out_ports_sfu                    1 # number of collector unit in ports (default = 1)
-gpgpu_operand_collector_num_out_ports_int                    0 # number of collector unit in ports (default = 0)
-gpgpu_operand_collector_num_out_ports_tensor_core                    1 # number of collector unit in ports (default = 1)
-gpgpu_operand_collector_num_out_ports_mem                    1 # number of collector unit in ports (default = 1)
-gpgpu_operand_collector_num_out_ports_gen                    8 # number of collector unit in ports (default = 0)
-gpgpu_coalesce_arch                   60 # Coalescing arch (GT200 = 13, Fermi = 20)
-gpgpu_num_sched_per_core                    4 # Number of warp schedulers per core
-gpgpu_max_insn_issue_per_warp                    1 # Max number of instructions that can be issued per warp in one cycle by scheduler (either 1 or 2)
-gpgpu_dual_issue_diff_exec_units                    1 # should dual issue use two different execution unit resources (Default = 1)
-gpgpu_simt_core_sim_order                    1 # Select the simulation order of cores in a cluster (0=Fix, 1=Round-Robin)
-gpgpu_pipeline_widths 4,4,4,4,4,4,4,4,4,4,8,4,4 # Pipeline widths ID_OC_SP,ID_OC_DP,ID_OC_INT,ID_OC_SFU,ID_OC_MEM,OC_EX_SP,OC_EX_DP,OC_EX_INT,OC_EX_SFU,OC_EX_MEM,EX_WB,ID_OC_TENSOR_CORE,OC_EX_TENSOR_CORE
-gpgpu_tensor_core_avail                    1 # Tensor Core Available (default=0)
-gpgpu_num_sp_units                     4 # Number of SP units (default=1)
-gpgpu_num_dp_units                     4 # Number of DP units (default=0)
-gpgpu_num_int_units                    4 # Number of INT units (default=0)
-gpgpu_num_sfu_units                    4 # Number of SF units (default=1)
-gpgpu_num_tensor_core_units                    4 # Number of tensor_core units (default=1)
-gpgpu_num_mem_units                    1 # Number if ldst units (default=1) WARNING: not hooked up to anything
-gpgpu_scheduler                      gto # Scheduler configuration: < lrr | gto | two_level_active > If two_level_active:<num_active_warps>:<inner_prioritization>:<outer_prioritization>For complete list of prioritization values see shader.h enum scheduler_prioritization_typeDefault: gto
-gpgpu_concurrent_kernel_sm                    0 # Support concurrent kernels on a SM (default = disabled)
-gpgpu_perfect_inst_const_cache                    1 # perfect inst and const cache mode, so all inst and const hits in the cache(default = disabled)
-gpgpu_inst_fetch_throughput                    4 # the number of fetched intruction per warp each cycle
-gpgpu_reg_file_port_throughput                    2 # the number ports of the register file
-specialized_unit_1         0,4,4,4,4,BRA # specialized unit config {<enabled>,<num_units>:<latency>:<initiation>,<ID_OC_SPEC>:<OC_EX_SPEC>,<NAME>}
-specialized_unit_2         0,4,4,4,4,BRA # specialized unit config {<enabled>,<num_units>:<latency>:<initiation>,<ID_OC_SPEC>:<OC_EX_SPEC>,<NAME>}
-specialized_unit_3         0,4,4,4,4,BRA # specialized unit config {<enabled>,<num_units>:<latency>:<initiation>,<ID_OC_SPEC>:<OC_EX_SPEC>,<NAME>}
-specialized_unit_4         0,4,4,4,4,BRA # specialized unit config {<enabled>,<num_units>:<latency>:<initiation>,<ID_OC_SPEC>:<OC_EX_SPEC>,<NAME>}
-specialized_unit_5         0,4,4,4,4,BRA # specialized unit config {<enabled>,<num_units>:<latency>:<initiation>,<ID_OC_SPEC>:<OC_EX_SPEC>,<NAME>}
-specialized_unit_6         0,4,4,4,4,BRA # specialized unit config {<enabled>,<num_units>:<latency>:<initiation>,<ID_OC_SPEC>:<OC_EX_SPEC>,<NAME>}
-specialized_unit_7         0,4,4,4,4,BRA # specialized unit config {<enabled>,<num_units>:<latency>:<initiation>,<ID_OC_SPEC>:<OC_EX_SPEC>,<NAME>}
-specialized_unit_8         0,4,4,4,4,BRA # specialized unit config {<enabled>,<num_units>:<latency>:<initiation>,<ID_OC_SPEC>:<OC_EX_SPEC>,<NAME>}
-gpgpu_perf_sim_memcpy                    1 # Fill the L2 cache on memcpy
-gpgpu_simple_dram_model                    0 # simple_dram_model with fixed latency and BW
-gpgpu_dram_scheduler                    1 # 0 = fifo, 1 = FR-FCFS (defaul)
-gpgpu_dram_partition_queues          64:64:64:64 # i2$:$2d:d2$:$2i
-l2_ideal                               0 # Use a ideal L2 cache that always hit
-gpgpu_cache:dl2     S:32:128:24,L:B:m:L:P,A:192:4,32:0,32 # unified banked L2 data cache config  {<nsets>:<bsize>:<assoc>,<rep>:<wr>:<alloc>:<wr_alloc>,<mshr>:<N>:<merge>,<mq>}
-gpgpu_cache:dl2_texture_only                    0 # L2 cache used for texture only
-gpgpu_n_mem                           32 # number of memory modules (e.g. memory controllers) in gpu
-gpgpu_n_sub_partition_per_mchannel                    2 # number of memory subpartition in each memory module
-gpgpu_n_mem_per_ctrlr                    1 # number of memory chips per memory controller
-gpgpu_memlatency_stat                   14 # track and display latency statistics 0x2 enables MC, 0x4 enables queue logs
-gpgpu_frfcfs_dram_sched_queue_size                   64 # 0 = unlimited (default); # entries per chip
-gpgpu_dram_return_queue_size                  192 # 0 = unlimited (default); # entries per chip
-gpgpu_dram_buswidth                   16 # default = 4 bytes (8 bytes per cycle at DDR)
-gpgpu_dram_burst_length                    2 # Burst length of each DRAM request (default = 4 data bus cycle)
-dram_data_command_freq_ratio                    2 # Frequency ratio between DRAM data bus and command bus (default = 2 times, i.e. DDR)
-gpgpu_dram_timing_opt nbk=16:CCD=1:RRD=3:RCD=12:RAS=28:RP=12:RC=40: CL=12:WL=2:CDLR=3:WR=10:nbkgrp=4:CCDL=2:RTPL=3 # DRAM timing parameters = {nbk:tCCD:tRRD:tRCD:tRAS:tRP:tRC:CL:WL:tCDLR:tWR:nbkgrp:tCCDL:tRTPL}
-gpgpu_l2_rop_latency                  160 # ROP queue latency (default 85)
-dram_latency                         200 # DRAM latency (default 30)
-dram_write_latency                   600 # DRAM write latency (default 100)
-dram_dual_bus_interface                    1 # dual_bus_interface (default = 0) 
-dram_bnk_indexing_policy                    0 # dram_bnk_indexing_policy (0 = normal indexing, 1 = Xoring with the higher bits) (Default = 0)
-dram_bnkgrp_indexing_policy                    1 # dram_bnkgrp_indexing_policy (0 = take higher bits, 1 = take lower bits) (Default = 0)
-dram_seperate_write_queue_enable                    0 # Seperate_Write_Queue_Enable
-dram_write_queue_size             32:28:16 # Write_Queue_Size
-dram_elimnate_rw_turnaround                    0 # elimnate_rw_turnaround i.e set tWTR and tRTW = 0
-icnt_flit_size                        40 # icnt_flit_size
-gpgpu_mem_addr_mapping dramid@8;00000000.00000000.00000000.00000000.0000RRRR.RRRRRRRR.RBBBCCCB.CCCSSSSS # mapping memory address to dram model {dramid@<start bit>;<memory address map>}
-gpgpu_mem_addr_test                    0 # run sweep test to check address mapping for aliased address
-gpgpu_mem_address_mask                    1 # 0 = old addressing mask, 1 = new addressing mask, 2 = new add. mask + flipped bank sel and chip sel bits
-gpgpu_memory_partition_indexing                    0 # 0 = no indexing, 1 = bitwise xoring, 2 = IPoly, 3 = custom indexing
-gpuwattch_xml_file         gpuwattch.xml # GPUWattch XML file
-power_simulation_enabled                    0 # Turn on power simulator (1=On, 0=Off)
-power_per_cycle_dump                    0 # Dump detailed power output each cycle
-power_trace_enabled                    0 # produce a file for the power trace (1=On, 0=Off)
-power_trace_zlevel                     6 # Compression level of the power trace output log (0=no comp, 9=highest)
-steady_power_levels_enabled                    0 # produce a file for the steady power levels (1=On, 0=Off)
-steady_state_definition                  8:4 # allowed deviation:number of samples
-gpgpu_max_cycle                        0 # terminates gpu simulation early (0 = no limit)
-gpgpu_max_insn                         0 # terminates gpu simulation early (0 = no limit)
-gpgpu_max_cta                          0 # terminates gpu simulation early (0 = no limit)
-gpgpu_max_completed_cta                    0 # terminates gpu simulation early (0 = no limit)
-gpgpu_runtime_stat                   500 # display runtime statistics such as dram utilization {<freq>:<flag>}
-liveness_message_freq                    1 # Minimum number of seconds between simulation liveness messages (0 = always print)
-gpgpu_compute_capability_major                    7 # Major compute capability version number
-gpgpu_compute_capability_minor                    0 # Minor compute capability version number
-gpgpu_flush_l1_cache                    1 # Flush L1 cache at the end of each kernel call
-gpgpu_flush_l2_cache                    0 # Flush L2 cache at the end of each kernel call
-gpgpu_deadlock_detect                    1 # Stop the simulation at deadlock (1=on (default), 0=off)
-gpgpu_ptx_instruction_classification                    0 # if enabled will classify ptx instruction types per kernel (Max 255 kernels now)
-gpgpu_ptx_sim_mode                     0 # Select between Performance (default) or Functional simulation (1)
-gpgpu_clock_domains 1132.0:1132.0:1132.0:850.0 # Clock Domain Frequencies in MhZ {<Core Clock>:<ICNT Clock>:<L2 Clock>:<DRAM Clock>}
-gpgpu_max_concurrent_kernel                    8 # maximum kernels that can run concurrently on GPU
-gpgpu_cflog_interval                    0 # Interval between each snapshot in control flow logger
-visualizer_enabled               51d6b012f59a5c8c012194371b3b2242  /home/pli11/Desktop/re_test/ProgPow/ethash_calculate_dag_item/undo_c_clwb/main
Extracting PTX file and ptxas options    1: main.1.sm_70.ptx -arch=sm_70
      0 # Turn on visualizer output (1=On, 0=Off)
-visualizer_outputfile                 NULL # Specifies the output log file for visualizer
-visualizer_zlevel                      6 # Compression level of the visualizer output log (0=no comp, 9=highest)
-gpgpu_stack_size_limit                 1024 # GPU thread stack size
-gpgpu_heap_size_limit              8388608 # GPU malloc heap size 
-gpgpu_runtime_sync_depth_limit                    2 # GPU device runtime synchronize depth
-gpgpu_runtime_pending_launch_count_limit                 2048 # GPU device runtime pending launch count
-trace_enabled                          0 # Turn on traces
-trace_components                    none # comma seperated list of traces to enable. Complete list found in trace_streams.tup. Default none
-trace_sampling_core                    0 # The core which is printed using CORE_DPRINTF. Default 0
-trace_sampling_memory_partition                   -1 # The memory partition which is printed using MEMPART_DPRINTF. Default -1 (i.e. all)
-enable_ptx_file_line_stats                    1 # Turn on PTX source line statistic profiling. (1 = On)
-ptx_line_stats_filename gpgpu_inst_stats.txt # Output file for PTX source line statistics.
-gpgpu_kernel_launch_latency                 5000 # Kernel launch latency in cycles. Default: 0
-gpgpu_cdp_enabled                      0 # Turn on CDP
-gpgpu_TB_launch_latency                    0 # thread block launch latency in cycles. Default: 0
DRAM Timing Options:
nbk                                    16 # number of banks
CCD                                     1 # column to column delay
RRD                                     3 # minimal delay between activation of rows in different banks
RCD                                    12 # row to column delay
RAS                                    28 # time needed to activate row
RP                                     12 # time needed to precharge (deactivate) row
RC                                     40 # row cycle time
CDLR                                    3 # switching from write to read (changes tWTR)
WR                                     10 # last data-in to row precharge
CL                                     12 # CAS latency
WL                                      2 # Write latency
nbkgrp                                  4 # number of bank groups
CCDL                                    2 # column to column delay between accesses to different bank groups
RTPL                                    3 # read to precharge delay between accesses to different bank groups
Total number of memory sub partition = 64
addr_dec_mask[CHIP]  = 0000000000001f00 	high:13 low:8
addr_dec_mask[BK]    = 00000000000e2000 	high:20 low:13
addr_dec_mask[ROW]   = 00000001fff00000 	high:33 low:20
addr_dec_mask[COL]   = 000000000001c0ff 	high:17 low:0
addr_dec_mask[BURST] = 000000000000001f 	high:5 low:0
sub_partition_id_mask = 0000000000002000
GPGPU-Sim uArch: clock freqs: 1132000000.000000:1132000000.000000:1132000000.000000:850000000.000000
GPGPU-Sim uArch: clock periods: 0.00000000088339222615:0.00000000088339222615:0.00000000088339222615:0.00000000117647058824
*** Initializing Memory Statistics ***
GPGPU-Sim uArch: performance model initialization complete.
self exe links to: /home/pli11/Desktop/re_test/ProgPow/ethash_calculate_dag_item/undo_c_clwb/main
self exe links to: /home/pli11/Desktop/re_test/ProgPow/ethash_calculate_dag_item/undo_c_clwb/main
10.1
GPGPU-Sim PTX: __cudaRegisterFatBinary, fat_cubin_handle = 1, filename=default
self exe links to: /home/pli11/Desktop/re_test/ProgPow/ethash_calculate_dag_item/undo_c_clwb/main
Running md5sum using "md5sum /home/pli11/Desktop/re_test/ProgPow/ethash_calculate_dag_item/undo_c_clwb/main "
self exe links to: /home/pli11/Desktop/re_test/ProgPow/ethash_calculate_dag_item/undo_c_clwb/main
Extracting specific PTX file named main.1.sm_70.ptx 
GPGPU-Sim PTX: __cudaRegisterFunction _Z25ethash_calculate_dag_itemjP8hash64_tmS0_j : hostFun 0x0x4123e6, fat_cubin_handle = 1
GPGPU-Sim PTX: Parsing main.1.sm_70.ptx
GPGPU-Sim PTX: allocating constant region for "keccakf_rndc" from 0x100 to 0x1c0 (global memory space) 1
GPGPU-Sim PTX: allocating global region for "NVM_log" from 0x200 to 0x4000200 (global memory space)
GPGPU-Sim PTX: allocating global region for "NVM_flag" from 0x4000200 to 0x4400200 (global memory space)
GPGPU-Sim PTX: allocating stack frame region for .local "__local_depot0" from 0x0 to 0x40
GPGPU-Sim PTX: instruction assembly for function '_Z25ethash_calculate_dag_itemjP8hash64_tmS0_j'...   done.
GPGPU-Sim PTX: finished parsing EMBEDDED .ptx file main.1.sm_70.ptx
GPGPU-Sim PTX: loading globals with explicit initializers... 
GPGPU-Sim PTX: finished loading globals (0 bytes total).
GPGPU-Sim PTX: loading constants with explicit initializers...  done.
GPGPU-Sim PTX: Loading PTXInfo from main.1.sm_70.ptx
GPGPU-Sim PTX: Binary info : gmem=71303168, cmem=192
GPGPU-Sim PTX: Kernel '_Z25ethash_calculate_dag_itemjP8hash64_tmS0_j' : regs=80, lmem=0, smem=0, cmem=388
GPGPU-Sim PTX: __cudaRegisterVar: hostVar = 0x41c4c0; deviceAddress = keccakf_rndc; deviceName = keccakf_rndc
GPGPU-Sim PTX: __cudaRegisterVar: Registering const memory space of 192 bytes
GPGPU-Sim PTX registering constant keccakf_rndc (192 bytes) to name mapping
GPGPU-Sim PTX: __cudaRegisterVar: hostVar = 0x6c09c0; deviceAddress = NVM_log; deviceName = NVM_log
GPGPU-Sim PTX: __cudaRegisterVar: Registering const memory space of 67108864 bytes
GPGPU-Sim PTX registering global NVM_log hostVar to name mapping
GPGPU-Sim PTX: __cudaRegisterVar: hostVar = 0x46c09c0; deviceAddress = NVM_flag; deviceName = NVM_flag
GPGPU-Sim PTX: __cudaRegisterVar: Registering const memory space of 4194304 bytes
GPGPU-Sim PTX registering global NVM_flag hostVar to name mapping
Set Device to current
Resetting device
Allocating light with size: 16907456
Generating mining buffers
GPGPU-Sim PTX: cudaStreamCreate
GPGPU-Sim PTX: cudaStreamCreate
Generating DAG for GPU #0 with dagBytes: 1082130304 gridSize: 4
fullRuns=16512
GPGPU-Sim PTX: Setting up arguments for 4 bytes starting at 0x7ffd785b87dc..
GPGPU-Sim PTX: Setting up arguments for 8 bytes starting at 0x7ffd785b87d0..
GPGPU-Sim PTX: Setting up arguments for 8 bytes starting at 0x7ffd785b87c8..
GPGPU-Sim PTX: Setting up arguments for 8 bytes starting at 0x7ffd785b87c0..
GPGPU-Sim PTX: Setting up arguments for 4 bytes starting at 0x7ffd785b87d8..

GPGPU-Sim PTX: cudaLaunch for 0x0x4123e6 (mode=performance simulation) on stream 1
GPGPU-Sim PTX: finding reconvergence points for '_Z25ethash_calculate_dag_itemjP8hash64_tmS0_j'...
GPGPU-Sim PTX: Finding dominators for '_Z25ethash_calculate_dag_itemjP8hash64_tmS0_j'...
GPGPU-Sim PTX: Finding immediate dominators for '_Z25ethash_calculate_dag_itemjP8hash64_tmS0_j'...
GPGPU-Sim PTX: Finding postdominators for '_Z25ethash_calculate_dag_itemjP8hash64_tmS0_j'...
GPGPU-Sim PTX: Finding immediate postdominators for '_Z25ethash_calculate_dag_itemjP8hash64_tmS0_j'...
GPGPU-Sim PTX: pre-decoding instructions for '_Z25ethash_calculate_dag_itemjP8hash64_tmS0_j'...
GPGPU-Sim PTX: reconvergence points for _Z25ethash_calculate_dag_itemjP8hash64_tmS0_j...
GPGPU-Sim PTX:  1 (potential) branch divergence @  PC=0x090 (main.1.sm_70.ptx:52) @%p4098 bra BB0_2588;
GPGPU-Sim PTX:    immediate post dominator      @  PC=0x2bdb8 (main.1.sm_70.ptx:26842) ret;
GPGPU-Sim PTX:  2 (potential) branch divergence @  PC=0x0b0 (main.1.sm_70.ptx:57) @%p4099 bra BB0_3;
GPGPU-Sim PTX:    immediate post dominator      @  PC=0x0e8 (main.1.sm_70.ptx:69) shl.b64 %rd6300, %rd7709, 6;
GPGPU-Sim PTX:  3 (potential) branch divergence @  PC=0x0c0 (main.1.sm_70.ptx:60) bra.uni BB0_4;
GPGPU-Sim PTX:    immediate post dominator      @  PC=0x0e8 (main.1.sm_70.ptx:69) shl.b64 %rd6300, %rd7709, 6;
GPGPU-Sim PTX:  4 (potential) branch divergence @  PC=0xa78 (main.1.sm_70.ptx:580) @%p4100 bra BB0_5;
GPGPU-Sim PTX:    immediate post dominator      @  PC=0xa80 (main.1.sm_70.ptx:582) mov.u32 %r24757, %tid.x;
GPGPU-Sim PTX:  5 (potential) branch divergence @  PC=0xb30 (main.1.sm_70.ptx:606) @%p4102 bra BB0_9;
GPGPU-Sim PTX:    immediate post dominator      @  PC=0xb98 (main.1.sm_70.ptx:622) shfl.sync.idx.b32 %r15|%p5, %r6065, %r6032, %r6062, %r6063;
GPGPU-Sim PTX:  6 (potential) branch divergence @  PC=0xbb8 (main.1.sm_70.ptx:626) @%p4102 bra BB0_11;
GPGPU-Sim PTX:    immediate post dominator      @  PC=0xc20 (main.1.sm_70.ptx:642) shfl.sync.idx.b32 %r19|%p9, %r6065, %r6042, %r6062, %r6063;
GPGPU-Sim PTX:  7 (potential) branch divergence @  PC=0xc40 (main.1.sm_70.ptx:646) @%p4102 bra BB0_13;
GPGPU-Sim PTX:    immediate post dominator      @  PC=0xca8 (main.1.sm_70.ptx:662) shfl.sync.idx.b32 %r23|%p13, %r6065, %r6033, %r6062, %r6063;
GPGPU-Sim PTX:  8 (potential) branch divergence @  PC=0xcc8 (main.1.sm_70.ptx:666) @%p4102 bra BB0_15;
GPGPU-Sim PTX:    immediate post dominator      @  PC=0xd30 (main.1.sm_70.ptx:682) add.s32 %r24784, %r24784, 1;
GPGPU-Sim PTX:  9 (potential) branch divergence @  PC=0xd40 (main.1.sm_70.ptx:684) @%p4106 bra BB0_7;
GPGPU-Sim PTX:    immediate post dominator      @  PC=0xd48 (main.1.sm_70.ptx:686) xor.b32 %r6128, %r6024, 1;
GPGPU-Sim PTX: 10 (potential) branch divergence @  PC=0xdd0 (main.1.sm_70.ptx:705) @%p4108 bra BB0_19;
GPGPU-Sim PTX:    immediate post dominator      @  PC=0xe38 (main.1.sm_70.ptx:721) shfl.sync.idx.b32 %r38|%p21, %r6137, %r6032, %r6062, %r6063;
GPGPU-Sim PTX: 11 (potential) branch divergence @  PC=0xe58 (main.1.sm_70.ptx:725) @%p4108 bra BB0_21;
GPGPU-Sim PTX:    immediate post dominator      @  PC=0xec0 (main.1.sm_70.ptx:741) shfl.sync.idx.b32 %r42|%p25, %r6137, %r6042, %r6062, %r6063;
GPGPU-Sim PTX: 12 (potential) branch divergence @  PC=0xee0 (main.1.sm_70.ptx:745) @%p4108 bra BB0_23;
GPGPU-Sim PTX:    immediate post dominator      @  PC=0xf48 (main.1.sm_70.ptx:761) shfl.sync.idx.b32 %r46|%p29, %r6137, %r6033, %r6062, %r6063;
GPGPU-Sim PTX: 13 (potential) branch divergence @  PC=0xf68 (main.1.sm_70.ptx:765) @%p4108 bra BB0_25;
GPGPU-Sim PTX:    immediate post dominator      @  PC=0xfd0 (main.1.sm_70.ptx:781) add.s32 %r24785, %r24785, 1;
GPGPU-Sim PTX: 14 (potential) branch divergence @  PC=0xfe0 (main.1.sm_70.ptx:783) @%p4112 bra BB0_17;
GPGPU-Sim PTX:    immediate post dominator      @  PC=0xfe8 (main.1.sm_70.ptx:785) xor.b32 %r6200, %r6024, 2;
GPGPU-Sim PTX: 15 (potential) branch divergence @  PC=0x1070 (main.1.sm_70.ptx:804) @%p4114 bra BB0_29;
GPGPU-Sim PTX:    immediate post dominator      @  PC=0x10d8 (main.1.sm_70.ptx:820) shfl.sync.idx.b32 %r61|%p37, %r6209, %r6032, %r6062, %r6063;
GPGPU-Sim PTX: 16 (potential) branch divergence @  PC=0x10f8 (main.1.sm_70.ptx:824) @%p4114 bra BB0_31;
GPGPU-Sim PTX:    immediate post dominator      @  PC=0x1160 (main.1.sm_70.ptx:840) shfl.sync.idx.b32 %r65|%p41, %r6209, %r6042, %r6062, %r6063;
GPGPU-Sim PTX: 17 (potential) branch divergence @  PC=0x1180 (main.1.sm_70.ptx:844) @%p4114 bra BB0_33;
GPGPU-Sim PTX:    immediate post dominator      @  PC=0x11e8 (main.1.sm_70.ptx:860) shfl.sync.idx.b32 %r69|%p45, %r6209, %r6033, %r6062, %r6063;
GPGPU-Sim PTX: 18 (potential) branch divergence @  PC=0x1208 (main.1.sm_70.ptx:864) @%p4114 bra BB0_35;
GPGPU-Sim PTX:    immediate post dominator      @  PC=0x1270 (main.1.sm_70.ptx:880) add.s32 %r24786, %r24786, 1;
GPGPU-Sim PTX: 19 (potential) branch divergence @  PC=0x1280 (main.1.sm_70.ptx:882) @%p4118 bra BB0_27;
GPGPU-Sim PTX:    immediate post dominator      @  PC=0x1288 (main.1.sm_70.ptx:884) xor.b32 %r6272, %r6024, 3;
GPGPU-Sim PTX: 20 (potential) branch divergence @  PC=0x1310 (main.1.sm_70.ptx:903) @%p4120 bra BB0_39;
GPGPU-Sim PTX:    immediate post dominator      @  PC=0x1378 (main.1.sm_70.ptx:919) shfl.sync.idx.b32 %r84|%p53, %r6281, %r6032, %r6062, %r6063;
GPGPU-Sim PTX: 21 (potential) branch divergence @  PC=0x1398 (main.1.sm_70.ptx:923) @%p4120 bra BB0_41;
GPGPU-Sim PTX:    immediate post dominator      @  PC=0x1400 (main.1.sm_70.ptx:939) shfl.sync.idx.b32 %r88|%p57, %r6281, %r6042, %r6062, %r6063;
GPGPU-Sim PTX: 22 (potential) branch divergence @  PC=0x1420 (main.1.sm_70.ptx:943) @%p4120 bra BB0_43;
GPGPU-Sim PTX:    immediate post dominator      @  PC=0x1488 (main.1.sm_70.ptx:959) shfl.sync.idx.b32 %r92|%p61, %r6281, %r6033, %r6062, %r6063;
GPGPU-Sim PTX: 23 (potential) branch divergence @  PC=0x14a8 (main.1.sm_70.ptx:963) @%p4120 bra BB0_45;
GPGPU-Sim PTX:    immediate post dominator      @  PC=0x1510 (main.1.sm_70.ptx:979) add.s32 %r24787, %r24787, 1;
GPGPU-Sim PTX: 24 (potential) branch divergence @  PC=0x1520 (main.1.sm_70.ptx:981) @%p4124 bra BB0_37;
GPGPU-Sim PTX:    immediate post dominator      @  PC=0x1528 (main.1.sm_70.ptx:983) xor.b32 %r6344, %r6024, 4;
GPGPU-Sim PTX: 25 (potential) branch divergence @  PC=0x15b0 (main.1.sm_70.ptx:1002) @%p4126 bra BB0_49;
GPGPU-Sim PTX:    immediate post dominator      @  PC=0x1618 (main.1.sm_70.ptx:1018) shfl.sync.idx.b32 %r107|%p69, %r6353, %r6032, %r6062, %r6063;
GPGPU-Sim PTX: 26 (potential) branch divergence @  PC=0x1638 (main.1.sm_70.ptx:1022) @%p4126 bra BB0_51;
GPGPU-Sim PTX:    immediate post dominator      @  PC=0x16a0 (main.1.sm_70.ptx:1038) shfl.sync.idx.b32 %r111|%p73, %r6353, %r6042, %r6062, %r6063;
GPGPU-Sim PTX: 27 (potential) branch divergence @  PC=0x16c0 (main.1.sm_70.ptx:1042) @%p4126 bra BB0_53;
GPGPU-Sim PTX:    immediate post dominator      @  PC=0x1728 (main.1.sm_70.ptx:1058) shfl.sync.idx.b32 %r115|%p77, %r6353, %r6033, %r6062, %r6063;
GPGPU-Sim PTX: 28 (potential) branch divergence @  PC=0x1748 (main.1.sm_70.ptx:1062) @%p4126 bra BB0_55;
GPGPU-Sim PTX:    immediate post dominator      @  PC=0x17b0 (main.1.sm_70.ptx:1078) add.s32 %r24788, %r24788, 1;
GPGPU-Sim PTX: 29 (potential) branch divergence @  PC=0x17c0 (main.1.sm_70.ptx:1080) @%p4130 bra BB0_47;
GPGPU-Sim PTX:    immediate post dominator      @  PC=0x17c8 (main.1.sm_70.ptx:1082) xor.b32 %r6416, %r6024, 5;
GPGPU-Sim PTX: 30 (potential) branch divergence @  PC=0x1850 (main.1.sm_70.ptx:1101) @%p4132 bra BB0_59;
GPGPU-Sim PTX:    immediate post dominator      @  PC=0x18b8 (main.1.sm_70.ptx:1117) shfl.sync.idx.b32 %r130|%p85, %r6425, %r6032, %r6062, %r6063;
GPGPU-Sim PTX: 31 (potential) branch divergence @  PC=0x18d8 (main.1.sm_70.ptx:1121) @%p4132 bra BB0_61;
GPGPU-Sim PTX:    immediate post dominator      @  PC=0x1940 (main.1.sm_70.ptx:1137) shfl.sync.idx.b32 %r134|%p89, %r6425, %r6042, %r6062, %r6063;
GPGPU-Sim PTX: 32 (potential) branch divergence @  PC=0x1960 (main.1.sm_70.ptx:1141) @%p4132 bra BB0_63;
GPGPU-Sim PTX:    immediate post dominator      @  PC=0x19c8 (main.1.sm_70.ptx:1157) shfl.sync.idx.b32 %r138|%p93, %r6425, %r6033, %r6062, %r6063;
GPGPU-Sim PTX: 33 (potential) branch divergence @  PC=0x19e8 (main.1.sm_70.ptx:1161) @%p4132 bra BB0_65;
GPGPU-Sim PTX:    immediate post dominator      @  PC=0x1a50 (main.1.sm_70.ptx:1177) add.s32 %r24789, %r24789, 1;
GPGPU-Sim PTX: 34 (potential) branch divergence @  PC=0x1a60 (main.1.sm_70.ptx:1179) @%p4136 bra BB0_57;
GPGPU-Sim PTX:    immediate post dominator      @  PC=0x1a68 (main.1.sm_70.ptx:1181) xor.b32 %r6488, %r6024, 6;
GPGPU-Sim PTX: 35 (potential) branch divergence @  PC=0x1af0 (main.1.sm_70.ptx:1200) @%p4138 bra BB0_69;
GPGPU-Sim PTX:    immediate post dominator      @  PC=0x1b58 (main.1.sm_70.ptx:1216) shfl.sync.idx.b32 %r153|%p101, %r6497, %r6032, %r6062, %r6063;
GPGPU-Sim PTX: 36 (potential) branch divergence @  PC=0x1b78 (main.1.sm_70.ptx:1220) @%p4138 bra BB0_71;
GPGPU-Sim PTX:    immediate post dominator      @  PC=0x1be0 (main.1.sm_70.ptx:1236) shfl.sync.idx.b32 %r157|%p105, %r6497, %r6042, %r6062, %r6063;
GPGPU-Sim PTX: 37 (potential) branch divergence @  PC=0x1c00 (main.1.sm_70.ptx:1240) @%p4138 bra BB0_73;
GPGPU-Sim PTX:    immediate post dominator      @  PC=0x1c68 (main.1.sm_70.ptx:1256) shfl.sync.idx.b32 %r161|%p109, %r6497, %r6033, %r6062, %r6063;
GPGPU-Sim PTX: 38 (potential) branch divergence @  PC=0x1c88 (main.1.sm_70.ptx:1260) @%p4138 bra BB0_75;
GPGPU-Sim PTX:    immediate post dominator      @  PC=0x1cf0 (main.1.sm_70.ptx:1276) add.s32 %r24790, %r24790, 1;
GPGPU-Sim PTX: 39 (potential) branch divergence @  PC=0x1d00 (main.1.sm_70.ptx:1278) @%p4142 bra BB0_67;
GPGPU-Sim PTX:    immediate post dominator      @  PC=0x1d08 (main.1.sm_70.ptx:1280) xor.b32 %r6560, %r6024, 7;
GPGPU-Sim PTX: 40 (potential) branch divergence @  PC=0x1d90 (main.1.sm_70.ptx:1299) @%p4144 bra BB0_79;
GPGPU-Sim PTX:    immediate post dominator      @  PC=0x1df8 (main.1.sm_70.ptx:1315) shfl.sync.idx.b32 %r176|%p117, %r6569, %r6032, %r6062, %r6063;
GPGPU-Sim PTX: 41 (potential) branch divergence @  PC=0x1e18 (main.1.sm_70.ptx:1319) @%p4144 bra BB0_81;
GPGPU-Sim PTX:    immediate post dominator      @  PC=0x1e80 (main.1.sm_70.ptx:1335) shfl.sync.idx.b32 %r180|%p121, %r6569, %r6042, %r6062, %r6063;
GPGPU-Sim PTX: 42 (potential) branch divergence @  PC=0x1ea0 (main.1.sm_70.ptx:1339) @%p4144 bra BB0_83;
GPGPU-Sim PTX:    immediate post dominator      @  PC=0x1f08 (main.1.sm_70.ptx:1355) shfl.sync.idx.b32 %r184|%p125, %r6569, %r6033, %r6062, %r6063;
GPGPU-Sim PTX: 43 (potential) branch divergence @  PC=0x1f28 (main.1.sm_70.ptx:1359) @%p4144 bra BB0_85;
GPGPU-Sim PTX:    immediate post dominator      @  PC=0x1f90 (main.1.sm_70.ptx:1375) add.s32 %r24791, %r24791, 1;
GPGPU-Sim PTX: 44 (potential) branch divergence @  PC=0x1fa0 (main.1.sm_70.ptx:1377) @%p4148 bra BB0_77;
GPGPU-Sim PTX:    immediate post dominator      @  PC=0x1fa8 (main.1.sm_70.ptx:1379) xor.b32 %r6632, %r6024, 8;
GPGPU-Sim PTX: 45 (potential) branch divergence @  PC=0x2030 (main.1.sm_70.ptx:1398) @%p4150 bra BB0_89;
GPGPU-Sim PTX:    immediate post dominator      @  PC=0x2098 (main.1.sm_70.ptx:1414) shfl.sync.idx.b32 %r199|%p133, %r6641, %r6032, %r6062, %r6063;
GPGPU-Sim PTX: 46 (potential) branch divergence @  PC=0x20b8 (main.1.sm_70.ptx:1418) @%p4150 bra BB0_91;
GPGPU-Sim PTX:    immediate post dominator      @  PC=0x2120 (main.1.sm_70.ptx:1434) shfl.sync.idx.b32 %r203|%p137, %r6641, %r6042, %r6062, %r6063;
GPGPU-Sim PTX: 47 (potential) branch divergence @  PC=0x2140 (main.1.sm_70.ptx:1438) @%p4150 bra BB0_93;
GPGPU-Sim PTX:    immediate post dominator      @  PC=0x21a8 (main.1.sm_70.ptx:1454) shfl.sync.idx.b32 %r207|%p141, %r6641, %r6033, %r6062, %r6063;
GPGPU-Sim PTX: 48 (potential) branch divergence @  PC=0x21c8 (main.1.sm_70.ptx:1458) @%p4150 bra BB0_95;
GPGPU-Sim PTX:    immediate post dominator      @  PC=0x2230 (main.1.sm_70.ptx:1474) add.s32 %r24792, %r24792, 1;
GPGPU-Sim PTX: 49 (potential) branch divergence @  PC=0x2240 (main.1.sm_70.ptx:1476) @%p4154 bra BB0_87;
GPGPU-Sim PTX:    immediate post dominator      @  PC=0x2248 (main.1.sm_70.ptx:1478) xor.b32 %r6704, %r6024, 9;
GPGPU-Sim PTX: 50 (potential) branch divergence @  PC=0x22d0 (main.1.sm_70.ptx:1497) @%p4156 bra BB0_99;
GPGPU-Sim PTX:    immediate post dominator      @  PC=0x2338 (main.1.sm_70.ptx:1513) shfl.sync.idx.b32 %r222|%p149, %r6713, %r6032, %r6062, %r6063;
GPGPU-Sim PTX: 51 (potential) branch divergence @  PC=0x2358 (main.1.sm_70.ptx:1517) @%p4156 bra BB0_101;
GPGPU-Sim PTX:    immediate post dominator      @  PC=0x23c0 (main.1.sm_70.ptx:1533) shfl.sync.idx.b32 %r226|%p153, %r6713, %r6042, %r6062, %r6063;
GPGPU-Sim PTX: 52 (potential) branch divergence @  PC=0x23e0 (main.1.sm_70.ptx:1537) @%p4156 bra BB0_103;
GPGPU-Sim PTX:    immediate post dominator      @  PC=0x2448 (main.1.sm_70.ptx:1553) shfl.sync.idx.b32 %r230|%p157, %r6713, %r6033, %r6062, %r6063;
GPGPU-Sim PTX: 53 (potential) branch divergence @  PC=0x2468 (main.1.sm_70.ptx:1557) @%p4156 bra BB0_105;
GPGPU-Sim PTX:    immediate post dominator      @  PC=0x24d0 (main.1.sm_70.ptx:1573) add.s32 %r24793, %r24793, 1;
GPGPU-Sim PTX: 54 (potential) branch divergence @  PC=0x24e0 (main.1.sm_70.ptx:1575) @%p4160 bra BB0_97;
GPGPU-Sim PTX:    immediate post dominator      @  PC=0x24e8 (main.1.sm_70.ptx:1577) xor.b32 %r6776, %r6024, 10;
GPGPU-Sim PTX: 55 (potential) branch divergence @  PC=0x2570 (main.1.sm_70.ptx:1596) @%p4162 bra BB0_109;
GPGPU-Sim PTX:    immediate post dominator      @  PC=0x25d8 (main.1.sm_70.ptx:1612) shfl.sync.idx.b32 %r245|%p165, %r6785, %r6032, %r6062, %r6063;
GPGPU-Sim PTX: 56 (potential) branch divergence @  PC=0x25f8 (main.1.sm_70.ptx:1616) @%p4162 bra BB0_111;
GPGPU-Sim PTX:    immediate post dominator      @  PC=0x2660 (main.1.sm_70.ptx:1632) shfl.sync.idx.b32 %r249|%p169, %r6785, %r6042, %r6062, %r6063;
GPGPU-Sim PTX: 57 (potential) branch divergence @  PC=0x2680 (main.1.sm_70.ptx:1636) @%p4162 bra BB0_113;
GPGPU-Sim PTX:    immediate post dominator      @  PC=0x26e8 (main.1.sm_70.ptx:1652) shfl.sync.idx.b32 %r253|%p173, %r6785, %r6033, %r6062, %r6063;
GPGPU-Sim PTX: 58 (potential) branch divergence @  PC=0x2708 (main.1.sm_70.ptx:1656) @%p4162 bra BB0_115;
GPGPU-Sim PTX:    immediate post dominator      @  PC=0x2770 (main.1.sm_70.ptx:1672) add.s32 %r24794, %r24794, 1;
GPGPU-Sim PTX: 59 (potential) branch divergence @  PC=0x2780 (main.1.sm_70.ptx:1674) @%p4166 bra BB0_107;
GPGPU-Sim PTX:    immediate post dominator      @  PC=0x2788 (main.1.sm_70.ptx:1676) xor.b32 %r6848, %r6024, 11;
GPGPU-Sim PTX: 60 (potential) branch divergence @  PC=0x2810 (main.1.sm_70.ptx:1695) @%p4168 bra BB0_119;
GPGPU-Sim PTX:    immediate post dominator      @  PC=0x2878 (main.1.sm_70.ptx:1711) shfl.sync.idx.b32 %r268|%p181, %r6857, %r6032, %r6062, %r6063;
GPGPU-Sim PTX: 61 (potential) branch divergence @  PC=0x2898 (main.1.sm_70.ptx:1715) @%p4168 bra BB0_121;
GPGPU-Sim PTX:    immediate post dominator      @  PC=0x2900 (main.1.sm_70.ptx:1731) shfl.sync.idx.b32 %r272|%p185, %r6857, %r6042, %r6062, %r6063;
GPGPU-Sim PTX: 62 (potential) branch divergence @  PC=0x2920 (main.1.sm_70.ptx:1735) @%p4168 bra BB0_123;
GPGPU-Sim PTX:    immediate post dominator      @  PC=0x2988 (main.1.sm_70.ptx:1751) shfl.sync.idx.b32 %r276|%p189, %r6857, %r6033, %r6062, %r6063;
GPGPU-Sim PTX: 63 (potential) branch divergence @  PC=0x29a8 (main.1.sm_70.ptx:1755) @%p4168 bra BB0_125;
GPGPU-Sim PTX:    immediate post dominator      @  PC=0x2a10 (main.1.sm_70.ptx:1771) add.s32 %r24795, %r24795, 1;
GPGPU-Sim PTX: 64 (potential) branch divergence @  PC=0x2a20 (main.1.sm_70.ptx:1773) @%p4172 bra BB0_117;
GPGPU-Sim PTX:    immediate post dominator      @  PC=0x2a28 (main.1.sm_70.ptx:1775) xor.b32 %r6920, %r6024, 12;
GPGPU-Sim PTX: 65 (potential) branch divergence @  PC=0x2ab0 (main.1.sm_70.ptx:1794) @%p4174 bra BB0_129;
GPGPU-Sim PTX:    immediate post dominator      @  PC=0x2b18 (main.1.sm_70.ptx:1810) shfl.sync.idx.b32 %r291|%p197, %r6929, %r6032, %r6062, %r6063;
GPGPU-Sim PTX: 66 (potential) branch divergence @  PC=0x2b38 (main.1.sm_70.ptx:1814) @%p4174 bra BB0_131;
GPGPU-Sim PTX:    immediate post dominator      @  PC=0x2ba0 (main.1.sm_70.ptx:1830) shfl.sync.idx.b32 %r295|%p201, %r6929, %r6042, %r6062, %r6063;
GPGPU-Sim PTX: 67 (potential) branch divergence @  PC=0x2bc0 (main.1.sm_70.ptx:1834) @%p4174 bra BB0_133;
GPGPU-Sim PTX:    immediate post dominator      @  PC=0x2c28 (main.1.sm_70.ptx:1850) shfl.sync.idx.b32 %r299|%p205, %r6929, %r6033, %r6062, %r6063;
GPGPU-Sim PTX: 68 (potential) branch divergence @  PC=0x2c48 (main.1.sm_70.ptx:1854) @%p4174 bra BB0_135;
GPGPU-Sim PTX:    immediate post dominator      @  PC=0x2cb0 (main.1.sm_70.ptx:1870) add.s32 %r24796, %r24796, 1;
GPGPU-Sim PTX: 69 (potential) branch divergence @  PC=0x2cc0 (main.1.sm_70.ptx:1872) @%p4178 bra BB0_127;
GPGPU-Sim PTX:    immediate post dominator      @  PC=0x2cc8 (main.1.sm_70.ptx:1874) xor.b32 %r6992, %r6024, 13;
GPGPU-Sim PTX: 70 (potential) branch divergence @  PC=0x2d50 (main.1.sm_70.ptx:1893) @%p4180 bra BB0_139;
GPGPU-Sim PTX:    immediate post dominator      @  PC=0x2db8 (main.1.sm_70.ptx:1909) shfl.sync.idx.b32 %r314|%p213, %r7001, %r6032, %r6062, %r6063;
GPGPU-Sim PTX: 71 (potential) branch divergence @  PC=0x2dd8 (main.1.sm_70.ptx:1913) @%p4180 bra BB0_141;
GPGPU-Sim PTX:    immediate post dominator      @  PC=0x2e40 (main.1.sm_70.ptx:1929) shfl.sync.idx.b32 %r318|%p217, %r7001, %r6042, %r6062, %r6063;
GPGPU-Sim PTX: 72 (potential) branch divergence @  PC=0x2e60 (main.1.sm_70.ptx:1933) @%p4180 bra BB0_143;
GPGPU-Sim PTX:    immediate post dominator      @  PC=0x2ec8 (main.1.sm_70.ptx:1949) shfl.sync.idx.b32 %r322|%p221, %r7001, %r6033, %r6062, %r6063;
GPGPU-Sim PTX: 73 (potential) branch divergence @  PC=0x2ee8 (main.1.sm_70.ptx:1953) @%p4180 bra BB0_145;
GPGPU-Sim PTX:    immediate post dominator      @  PC=0x2f50 (main.1.sm_70.ptx:1969) add.s32 %r24797, %r24797, 1;
GPGPU-Sim PTX: 74 (potential) branch divergence @  PC=0x2f60 (main.1.sm_70.ptx:1971) @%p4184 bra BB0_137;
GPGPU-Sim PTX:    immediate post dominator      @  PC=0x2f68 (main.1.sm_70.ptx:1973) xor.b32 %r7064, %r6024, 14;
GPGPU-Sim PTX: 75 (potential) branch divergence @  PC=0x2ff0 (main.1.sm_70.ptx:1992) @%p4186 bra BB0_149;
GPGPU-Sim PTX:    immediate post dominator      @  PC=0x3058 (main.1.sm_70.ptx:2008) shfl.sync.idx.b32 %r337|%p229, %r7073, %r6032, %r6062, %r6063;
GPGPU-Sim PTX: 76 (potential) branch divergence @  PC=0x3078 (main.1.sm_70.ptx:2012) @%p4186 bra BB0_151;
GPGPU-Sim PTX:    immediate post dominator      @  PC=0x30e0 (main.1.sm_70.ptx:2028) shfl.sync.idx.b32 %r341|%p233, %r7073, %r6042, %r6062, %r6063;
GPGPU-Sim PTX: 77 (potential) branch divergence @  PC=0x3100 (main.1.sm_70.ptx:2032) @%p4186 bra BB0_153;
GPGPU-Sim PTX:    immediate post dominator      @  PC=0x3168 (main.1.sm_70.ptx:2048) shfl.sync.idx.b32 %r345|%p237, %r7073, %r6033, %r6062, %r6063;
GPGPU-Sim PTX: 78 (potential) branch divergence @  PC=0x3188 (main.1.sm_70.ptx:2052) @%p4186 bra BB0_155;
GPGPU-Sim PTX:    immediate post dominator      @  PC=0x31f0 (main.1.sm_70.ptx:2068) add.s32 %r24798, %r24798, 1;
GPGPU-Sim PTX: 79 (potential) branch divergence @  PC=0x3200 (main.1.sm_70.ptx:2070) @%p4190 bra BB0_147;
GPGPU-Sim PTX:    immediate post dominator      @  PC=0x3208 (main.1.sm_70.ptx:2072) xor.b32 %r7136, %r6024, 15;
GPGPU-Sim PTX: 80 (potential) branch divergence @  PC=0x3290 (main.1.sm_70.ptx:2091) @%p4192 bra BB0_159;
GPGPU-Sim PTX:    immediate post dominator      @  PC=0x32f8 (main.1.sm_70.ptx:2107) shfl.sync.idx.b32 %r360|%p245, %r7145, %r6032, %r6062, %r6063;
GPGPU-Sim PTX: 81 (potential) branch divergence @  PC=0x3318 (main.1.sm_70.ptx:2111) @%p4192 bra BB0_161;
GPGPU-Sim PTX:    immediate post dominator      @  PC=0x3380 (main.1.sm_70.ptx:2127) shfl.sync.idx.b32 %r364|%p249, %r7145, %r6042, %r6062, %r6063;
GPGPU-Sim PTX: 82 (potential) branch divergence @  PC=0x33a0 (main.1.sm_70.ptx:2131) @%p4192 bra BB0_163;
GPGPU-Sim PTX:    immediate post dominator      @  PC=0x3408 (main.1.sm_70.ptx:2147) shfl.sync.idx.b32 %r368|%p253, %r7145, %r6033, %r6062, %r6063;
GPGPU-Sim PTX: 83 (potential) branch divergence @  PC=0x3428 (main.1.sm_70.ptx:2151) @%p4192 bra BB0_165;
GPGPU-Sim PTX:    immediate post dominator      @  PC=0x3490 (main.1.sm_70.ptx:2167) add.s32 %r24799, %r24799, 1;
GPGPU-Sim PTX: 84 (potential) branch divergence @  PC=0x34a0 (main.1.sm_70.ptx:2169) @%p4196 bra BB0_157;
GPGPU-Sim PTX:    immediate post dominator      @  PC=0x34a8 (main.1.sm_70.ptx:2171) xor.b32 %r7208, %r6024, 16;
GPGPU-Sim PTX: 85 (potential) branch divergence @  PC=0x3530 (main.1.sm_70.ptx:2190) @%p4198 bra BB0_169;
GPGPU-Sim PTX:    immediate post dominator      @  PC=0x3598 (main.1.sm_70.ptx:2206) shfl.sync.idx.b32 %r383|%p261, %r7217, %r6032, %r6062, %r6063;
GPGPU-Sim PTX: 86 (potential) branch divergence @  PC=0x35b8 (main.1.sm_70.ptx:2210) @%p4198 bra BB0_171;
GPGPU-Sim PTX:    immediate post dominator      @  PC=0x3620 (main.1.sm_70.ptx:2226) shfl.sync.idx.b32 %r387|%p265, %r7217, %r6042, %r6062, %r6063;
GPGPU-Sim PTX: 87 (potential) branch divergence @  PC=0x3640 (main.1.sm_70.ptx:2230) @%p4198 bra BB0_173;
GPGPU-Sim PTX:    immediate post dominator      @  PC=0x36a8 (main.1.sm_70.ptx:2246) shfl.sync.idx.b32 %r391|%p269, %r7217, %r6033, %r6062, %r6063;
GPGPU-Sim PTX: 88 (potential) branch divergence @  PC=0x36c8 (main.1.sm_70.ptx:2250) @%p4198 bra BB0_175;
GPGPU-Sim PTX:    immediate post dominator      @  PC=0x3730 (main.1.sm_70.ptx:2266) add.s32 %r24800, %r24800, 1;
GPGPU-Sim PTX: 89 (potential) branch divergence @  PC=0x3740 (main.1.sm_70.ptx:2268) @%p4202 bra BB0_167;
GPGPU-Sim PTX:    immediate post dominator      @  PC=0x3748 (main.1.sm_70.ptx:2270) xor.b32 %r7280, %r6024, 17;
GPGPU-Sim PTX: 90 (potential) branch divergence @  PC=0x37d0 (main.1.sm_70.ptx:2289) @%p4204 bra BB0_179;
GPGPU-Sim PTX:    immediate post dominator      @  PC=0x3838 (main.1.sm_70.ptx:2305) shfl.sync.idx.b32 %r406|%p277, %r7289, %r6032, %r6062, %r6063;
GPGPU-Sim PTX: 91 (potential) branch divergence @  PC=0x3858 (main.1.sm_70.ptx:2309) @%p4204 bra BB0_181;
GPGPU-Sim PTX:    immediate post dominator      @  PC=0x38c0 (main.1.sm_70.ptx:2325) shfl.sync.idx.b32 %r410|%p281, %r7289, %r6042, %r6062, %r6063;
GPGPU-Sim PTX: 92 (potential) branch divergence @  PC=0x38e0 (main.1.sm_70.ptx:2329) @%p4204 bra BB0_183;
GPGPU-Sim PTX:    immediate post dominator      @  PC=0x3948 (main.1.sm_70.ptx:2345) shfl.sync.idx.b32 %r414|%p285, %r7289, %r6033, %r6062, %r6063;
GPGPU-Sim PTX: 93 (potential) branch divergence @  PC=0x3968 (main.1.sm_70.ptx:2349) @%p4204 bra BB0_185;
GPGPU-Sim PTX:    immediate post dominator      @  PC=0x39d0 (main.1.sm_70.ptx:2365) add.s32 %r24801, %r24801, 1;
GPGPU-Sim PTX: 94 (potential) branch divergence @  PC=0x39e0 (main.1.sm_70.ptx:2367) @%p4208 bra BB0_177;
GPGPU-Sim PTX:    immediate post dominator      @  PC=0x39e8 (main.1.sm_70.ptx:2369) xor.b32 %r7352, %r6024, 18;
GPGPU-Sim PTX: 95 (potential) branch divergence @  PC=0x3a70 (main.1.sm_70.ptx:2388) @%p4210 bra BB0_189;
GPGPU-Sim PTX:    immediate post dominator      @  PC=0x3ad8 (main.1.sm_70.ptx:2404) shfl.sync.idx.b32 %r429|%p293, %r7361, %r6032, %r6062, %r6063;
GPGPU-Sim PTX: 96 (potential) branch divergence @  PC=0x3af8 (main.1.sm_70.ptx:2408) @%p4210 bra BB0_191;
GPGPU-Sim PTX:    immediate post dominator      @  PC=0x3b60 (main.1.sm_70.ptx:2424) shfl.sync.idx.b32 %r433|%p297, %r7361, %r6042, %r6062, %r6063;
GPGPU-Sim PTX: 97 (potential) branch divergence @  PC=0x3b80 (main.1.sm_70.ptx:2428) @%p4210 bra BB0_193;
GPGPU-Sim PTX:    immediate post dominator      @  PC=0x3be8 (main.1.sm_70.ptx:2444) shfl.sync.idx.b32 %r437|%p301, %r7361, %r6033, %r6062, %r6063;
GPGPU-Sim PTX: 98 (potential) branch divergence @  PC=0x3c08 (main.1.sm_70.ptx:2448) @%p4210 bra BB0_195;
GPGPU-Sim PTX:    immediate post dominator      @  PC=0x3c70 (main.1.sm_70.ptx:2464) add.s32 %r24802, %r24802, 1;
GPGPU-Sim PTX: 99 (potential) branch divergence @  PC=0x3c80 (main.1.sm_70.ptx:2466) @%p4214 bra BB0_187;
GPGPU-Sim PTX:    immediate post dominator      @  PC=0x3c88 (main.1.sm_70.ptx:2468) xor.b32 %r7424, %r6024, 19;
GPGPU-Sim PTX: 100 (potential) branch divergence @  PC=0x3d10 (main.1.sm_70.ptx:2487) @%p4216 bra BB0_199;
GPGPU-Sim PTX:    immediate post dominator      @  PC=0x3d78 (main.1.sm_70.ptx:2503) shfl.sync.idx.b32 %r452|%p309, %r7433, %r6032, %r6062, %r6063;
GPGPU-Sim PTX: 101 (potential) branch divergence @  PC=0x3d98 (main.1.sm_70.ptx:2507) @%p4216 bra BB0_201;
GPGPU-Sim PTX:    immediate post dominator      @  PC=0x3e00 (main.1.sm_70.ptx:2523) shfl.sync.idx.b32 %r456|%p313, %r7433, %r6042, %r6062, %r6063;
GPGPU-Sim PTX: 102 (potential) branch divergence @  PC=0x3e20 (main.1.sm_70.ptx:2527) @%p4216 bra BB0_203;
GPGPU-Sim PTX:    immediate post dominator      @  PC=0x3e88 (main.1.sm_70.ptx:2543) shfl.sync.idx.b32 %r460|%p317, %r7433, %r6033, %r6062, %r6063;
GPGPU-Sim PTX: 103 (potential) branch divergence @  PC=0x3ea8 (main.1.sm_70.ptx:2547) @%p4216 bra BB0_205;
GPGPU-Sim PTX:    immediate post dominator      @  PC=0x3f10 (main.1.sm_70.ptx:2563) add.s32 %r24803, %r24803, 1;
GPGPU-Sim PTX: 104 (potential) branch divergence @  PC=0x3f20 (main.1.sm_70.ptx:2565) @%p4220 bra BB0_197;
GPGPU-Sim PTX:    immediate post dominator      @  PC=0x3f28 (main.1.sm_70.ptx:2567) xor.b32 %r7496, %r6024, 20;
GPGPU-Sim PTX: 105 (potential) branch divergence @  PC=0x3fb0 (main.1.sm_70.ptx:2586) @%p4222 bra BB0_209;
GPGPU-Sim PTX:    immediate post dominator      @  PC=0x4018 (main.1.sm_70.ptx:2602) shfl.sync.idx.b32 %r475|%p325, %r7505, %r6032, %r6062, %r6063;
GPGPU-Sim PTX: 106 (potential) branch divergence @  PC=0x4038 (main.1.sm_70.ptx:2606) @%p4222 bra BB0_211;
GPGPU-Sim PTX:    immediate post dominator      @  PC=0x40a0 (main.1.sm_70.ptx:2622) shfl.sync.idx.b32 %r479|%p329, %r7505, %r6042, %r6062, %r6063;
GPGPU-Sim PTX: 107 (potential) branch divergence @  PC=0x40c0 (main.1.sm_70.ptx:2626) @%p4222 bra BB0_213;
GPGPU-Sim PTX:    immediate post dominator      @  PC=0x4128 (main.1.sm_70.ptx:2642) shfl.sync.idx.b32 %r483|%p333, %r7505, %r6033, %r6062, %r6063;
GPGPU-Sim PTX: 108 (potential) branch divergence @  PC=0x4148 (main.1.sm_70.ptx:2646) @%p4222 bra BB0_215;
GPGPU-Sim PTX:    immediate post dominator      @  PC=0x41b0 (main.1.sm_70.ptx:2662) add.s32 %r24804, %r24804, 1;
GPGPU-Sim PTX: 109 (potential) branch divergence @  PC=0x41c0 (main.1.sm_70.ptx:2664) @%p4226 bra BB0_207;
GPGPU-Sim PTX:    immediate post dominator      @  PC=0x41c8 (main.1.sm_70.ptx:2666) xor.b32 %r7568, %r6024, 21;
GPGPU-Sim PTX: 110 (potential) branch divergence @  PC=0x4250 (main.1.sm_70.ptx:2685) @%p4228 bra BB0_219;
GPGPU-Sim PTX:    immediate post dominator      @  PC=0x42b8 (main.1.sm_70.ptx:2701) shfl.sync.idx.b32 %r498|%p341, %r7577, %r6032, %r6062, %r6063;
GPGPU-Sim PTX: 111 (potential) branch divergence @  PC=0x42d8 (main.1.sm_70.ptx:2705) @%p4228 bra BB0_221;
GPGPU-Sim PTX:    immediate post dominator      @  PC=0x4340 (main.1.sm_70.ptx:2721) shfl.sync.idx.b32 %r502|%p345, %r7577, %r6042, %r6062, %r6063;
GPGPU-Sim PTX: 112 (potential) branch divergence @  PC=0x4360 (main.1.sm_70.ptx:2725) @%p4228 bra BB0_223;
GPGPU-Sim PTX:    immediate post dominator      @  PC=0x43c8 (main.1.sm_70.ptx:2741) shfl.sync.idx.b32 %r506|%p349, %r7577, %r6033, %r6062, %r6063;
GPGPU-Sim PTX: 113 (potential) branch divergence @  PC=0x43e8 (main.1.sm_70.ptx:2745) @%p4228 bra BB0_225;
GPGPU-Sim PTX:    immediate post dominator      @  PC=0x4450 (main.1.sm_70.ptx:2761) add.s32 %r24805, %r24805, 1;
GPGPU-Sim PTX: 114 (potential) branch divergence @  PC=0x4460 (main.1.sm_70.ptx:2763) @%p4232 bra BB0_217;
GPGPU-Sim PTX:    immediate post dominator      @  PC=0x4468 (main.1.sm_70.ptx:2765) xor.b32 %r7640, %r6024, 22;
GPGPU-Sim PTX: 115 (potential) branch divergence @  PC=0x44f0 (main.1.sm_70.ptx:2784) @%p4234 bra BB0_229;
GPGPU-Sim PTX:    immediate post dominator      @  PC=0x4558 (main.1.sm_70.ptx:2800) shfl.sync.idx.b32 %r521|%p357, %r7649, %r6032, %r6062, %r6063;
GPGPU-Sim PTX: 116 (potential) branch divergence @  PC=0x4578 (main.1.sm_70.ptx:2804) @%p4234 bra BB0_231;
GPGPU-Sim PTX:    immediate post dominator      @  PC=0x45e0 (main.1.sm_70.ptx:2820) shfl.sync.idx.b32 %r525|%p361, %r7649, %r6042, %r6062, %r6063;
GPGPU-Sim PTX: 117 (potential) branch divergence @  PC=0x4600 (main.1.sm_70.ptx:2824) @%p4234 bra BB0_233;
GPGPU-Sim PTX:    immediate post dominator      @  PC=0x4668 (main.1.sm_70.ptx:2840) shfl.sync.idx.b32 %r529|%p365, %r7649, %r6033, %r6062, %r6063;
GPGPU-Sim PTX: 118 (potential) branch divergence @  PC=0x4688 (main.1.sm_70.ptx:2844) @%p4234 bra BB0_235;
GPGPU-Sim PTX:    immediate post dominator      @  PC=0x46f0 (main.1.sm_70.ptx:2860) add.s32 %r24806, %r24806, 1;
GPGPU-Sim PTX: 119 (potential) branch divergence @  PC=0x4700 (main.1.sm_70.ptx:2862) @%p4238 bra BB0_227;
GPGPU-Sim PTX:    immediate post dominator      @  PC=0x4708 (main.1.sm_70.ptx:2864) xor.b32 %r7712, %r6024, 23;
GPGPU-Sim PTX: 120 (potential) branch divergence @  PC=0x4790 (main.1.sm_70.ptx:2883) @%p4240 bra BB0_239;
GPGPU-Sim PTX:    immediate post dominator      @  PC=0x47f8 (main.1.sm_70.ptx:2899) shfl.sync.idx.b32 %r544|%p373, %r7721, %r6032, %r6062, %r6063;
GPGPU-Sim PTX: 121 (potential) branch divergence @  PC=0x4818 (main.1.sm_70.ptx:2903) @%p4240 bra BB0_241;
GPGPU-Sim PTX:    immediate post dominator      @  PC=0x4880 (main.1.sm_70.ptx:2919) shfl.sync.idx.b32 %r548|%p377, %r7721, %r6042, %r6062, %r6063;
GPGPU-Sim PTX: 122 (potential) branch divergence @  PC=0x48a0 (main.1.sm_70.ptx:2923) @%p4240 bra BB0_243;
GPGPU-Sim PTX:    immediate post dominator      @  PC=0x4908 (main.1.sm_70.ptx:2939) shfl.sync.idx.b32 %r552|%p381, %r7721, %r6033, %r6062, %r6063;
GPGPU-Sim PTX: 123 (potential) branch divergence @  PC=0x4928 (main.1.sm_70.ptx:2943) @%p4240 bra BB0_245;
GPGPU-Sim PTX:    immediate post dominator      @  PC=0x4990 (main.1.sm_70.ptx:2959) add.s32 %r24807, %r24807, 1;
GPGPU-Sim PTX: 124 (potential) branch divergence @  PC=0x49a0 (main.1.sm_70.ptx:2961) @%p4244 bra BB0_237;
GPGPU-Sim PTX:    immediate post dominator      @  PC=0x49a8 (main.1.sm_70.ptx:2963) xor.b32 %r7784, %r6024, 24;
GPGPU-Sim PTX: 125 (potential) branch divergence @  PC=0x4a30 (main.1.sm_70.ptx:2982) @%p4246 bra BB0_249;
GPGPU-Sim PTX:    immediate post dominator      @  PC=0x4a98 (main.1.sm_70.ptx:2998) shfl.sync.idx.b32 %r567|%p389, %r7793, %r6032, %r6062, %r6063;
GPGPU-Sim PTX: 126 (potential) branch divergence @  PC=0x4ab8 (main.1.sm_70.ptx:3002) @%p4246 bra BB0_251;
GPGPU-Sim PTX:    immediate post dominator      @  PC=0x4b20 (main.1.sm_70.ptx:3018) shfl.sync.idx.b32 %r571|%p393, %r7793, %r6042, %r6062, %r6063;
GPGPU-Sim PTX: 127 (potential) branch divergence @  PC=0x4b40 (main.1.sm_70.ptx:3022) @%p4246 bra BB0_253;
GPGPU-Sim PTX:    immediate post dominator      @  PC=0x4ba8 (main.1.sm_70.ptx:3038) shfl.sync.idx.b32 %r575|%p397, %r7793, %r6033, %r6062, %r6063;
GPGPU-Sim PTX: 128 (potential) branch divergence @  PC=0x4bc8 (main.1.sm_70.ptx:3042) @%p4246 bra BB0_255;
GPGPU-Sim PTX:    immediate post dominator      @  PC=0x4c30 (main.1.sm_70.ptx:3058) add.s32 %r24808, %r24808, 1;
GPGPU-Sim PTX: 129 (potential) branch divergence @  PC=0x4c40 (main.1.sm_70.ptx:3060) @%p4250 bra BB0_247;
GPGPU-Sim PTX:    immediate post dominator      @  PC=0x4c48 (main.1.sm_70.ptx:3062) xor.b32 %r7856, %r6024, 25;
GPGPU-Sim PTX: 130 (potential) branch divergence @  PC=0x4cd0 (main.1.sm_70.ptx:3081) @%p4252 bra BB0_259;
GPGPU-Sim PTX:    immediate post dominator      @  PC=0x4d38 (main.1.sm_70.ptx:3097) shfl.sync.idx.b32 %r590|%p405, %r7865, %r6032, %r6062, %r6063;
GPGPU-Sim PTX: 131 (potential) branch divergence @  PC=0x4d58 (main.1.sm_70.ptx:3101) @%p4252 bra BB0_261;
GPGPU-Sim PTX:    immediate post dominator      @  PC=0x4dc0 (main.1.sm_70.ptx:3117) shfl.sync.idx.b32 %r594|%p409, %r7865, %r6042, %r6062, %r6063;
GPGPU-Sim PTX: 132 (potential) branch divergence @  PC=0x4de0 (main.1.sm_70.ptx:3121) @%p4252 bra BB0_263;
GPGPU-Sim PTX:    immediate post dominator      @  PC=0x4e48 (main.1.sm_70.ptx:3137) shfl.sync.idx.b32 %r598|%p413, %r7865, %r6033, %r6062, %r6063;
GPGPU-Sim PTX: 133 (potential) branch divergence @  PC=0x4e68 (main.1.sm_70.ptx:3141) @%p4252 bra BB0_265;
GPGPU-Sim PTX:    immediate post dominator      @  PC=0x4ed0 (main.1.sm_70.ptx:3157) add.s32 %r24809, %r24809, 1;
GPGPU-Sim PTX: 134 (potential) branch divergence @  PC=0x4ee0 (main.1.sm_70.ptx:3159) @%p4256 bra BB0_257;
GPGPU-Sim PTX:    immediate post dominator      @  PC=0x4ee8 (main.1.sm_70.ptx:3161) xor.b32 %r7928, %r6024, 26;
GPGPU-Sim PTX: 135 (potential) branch divergence @  PC=0x4f70 (main.1.sm_70.ptx:3180) @%p4258 bra BB0_269;
GPGPU-Sim PTX:    immediate post dominator      @  PC=0x4fd8 (main.1.sm_70.ptx:3196) shfl.sync.idx.b32 %r613|%p421, %r7937, %r6032, %r6062, %r6063;
GPGPU-Sim PTX: 136 (potential) branch divergence @  PC=0x4ff8 (main.1.sm_70.ptx:3200) @%p4258 bra BB0_271;
GPGPU-Sim PTX:    immediate post dominator      @  PC=0x5060 (main.1.sm_70.ptx:3216) shfl.sync.idx.b32 %r617|%p425, %r7937, %r6042, %r6062, %r6063;
GPGPU-Sim PTX: 137 (potential) branch divergence @  PC=0x5080 (main.1.sm_70.ptx:3220) @%p4258 bra BB0_273;
GPGPU-Sim PTX:    immediate post dominator      @  PC=0x50e8 (main.1.sm_70.ptx:3236) shfl.sync.idx.b32 %r621|%p429, %r7937, %r6033, %r6062, %r6063;
GPGPU-Sim PTX: 138 (potential) branch divergence @  PC=0x5108 (main.1.sm_70.ptx:3240) @%p4258 bra BB0_275;
GPGPU-Sim PTX:    immediate post dominator      @  PC=0x5170 (main.1.sm_70.ptx:3256) add.s32 %r24810, %r24810, 1;
GPGPU-Sim PTX: 139 (potential) branch divergence @  PC=0x5180 (main.1.sm_70.ptx:3258) @%p4262 bra BB0_267;
GPGPU-Sim PTX:    immediate post dominator      @  PC=0x5188 (main.1.sm_70.ptx:3260) xor.b32 %r8000, %r6024, 27;
GPGPU-Sim PTX: 140 (potential) branch divergence @  PC=0x5210 (main.1.sm_70.ptx:3279) @%p4264 bra BB0_279;
GPGPU-Sim PTX:    immediate post dominator      @  PC=0x5278 (main.1.sm_70.ptx:3295) shfl.sync.idx.b32 %r636|%p437, %r8009, %r6032, %r6062, %r6063;
GPGPU-Sim PTX: 141 (potential) branch divergence @  PC=0x5298 (main.1.sm_70.ptx:3299) @%p4264 bra BB0_281;
GPGPU-Sim PTX:    immediate post dominator      @  PC=0x5300 (main.1.sm_70.ptx:3315) shfl.sync.idx.b32 %r640|%p441, %r8009, %r6042, %r6062, %r6063;
GPGPU-Sim PTX: 142 (potential) branch divergence @  PC=0x5320 (main.1.sm_70.ptx:3319) @%p4264 bra BB0_283;
GPGPU-Sim PTX:    immediate post dominator      @  PC=0x5388 (main.1.sm_70.ptx:3335) shfl.sync.idx.b32 %r644|%p445, %r8009, %r6033, %r6062, %r6063;
GPGPU-Sim PTX: 143 (potential) branch divergence @  PC=0x53a8 (main.1.sm_70.ptx:3339) @%p4264 bra BB0_285;
GPGPU-Sim PTX:    immediate post dominator      @  PC=0x5410 (main.1.sm_70.ptx:3355) add.s32 %r24811, %r24811, 1;
GPGPU-Sim PTX: 144 (potential) branch divergence @  PC=0x5420 (main.1.sm_70.ptx:3357) @%p4268 bra BB0_277;
GPGPU-Sim PTX:    immediate post dominator      @  PC=0x5428 (main.1.sm_70.ptx:3359) xor.b32 %r8072, %r6024, 28;
GPGPU-Sim PTX: 145 (potential) branch divergence @  PC=0x54b0 (main.1.sm_70.ptx:3378) @%p4270 bra BB0_289;
GPGPU-Sim PTX:    immediate post dominator      @  PC=0x5518 (main.1.sm_70.ptx:3394) shfl.sync.idx.b32 %r659|%p453, %r8081, %r6032, %r6062, %r6063;
GPGPU-Sim PTX: 146 (potential) branch divergence @  PC=0x5538 (main.1.sm_70.ptx:3398) @%p4270 bra BB0_291;
GPGPU-Sim PTX:    immediate post dominator      @  PC=0x55a0 (main.1.sm_70.ptx:3414) shfl.sync.idx.b32 %r663|%p457, %r8081, %r6042, %r6062, %r6063;
GPGPU-Sim PTX: 147 (potential) branch divergence @  PC=0x55c0 (main.1.sm_70.ptx:3418) @%p4270 bra BB0_293;
GPGPU-Sim PTX:    immediate post dominator      @  PC=0x5628 (main.1.sm_70.ptx:3434) shfl.sync.idx.b32 %r667|%p461, %r8081, %r6033, %r6062, %r6063;
GPGPU-Sim PTX: 148 (potential) branch divergence @  PC=0x5648 (main.1.sm_70.ptx:3438) @%p4270 bra BB0_295;
GPGPU-Sim PTX:    immediate post dominator      @  PC=0x56b0 (main.1.sm_70.ptx:3454) add.s32 %r24812, %r24812, 1;
GPGPU-Sim PTX: 149 (potential) branch divergence @  PC=0x56c0 (main.1.sm_70.ptx:3456) @%p4274 bra BB0_287;
GPGPU-Sim PTX:    immediate post dominator      @  PC=0x56c8 (main.1.sm_70.ptx:3458) xor.b32 %r8144, %r6024, 29;
GPGPU-Sim PTX: 150 (potential) branch divergence @  PC=0x5750 (main.1.sm_70.ptx:3477) @%p4276 bra BB0_299;
GPGPU-Sim PTX:    immediate post dominator      @  PC=0x57b8 (main.1.sm_70.ptx:3493) shfl.sync.idx.b32 %r682|%p469, %r8153, %r6032, %r6062, %r6063;
GPGPU-Sim PTX: 151 (potential) branch divergence @  PC=0x57d8 (main.1.sm_70.ptx:3497) @%p4276 bra BB0_301;
GPGPU-Sim PTX:    immediate post dominator      @  PC=0x5840 (main.1.sm_70.ptx:3513) shfl.sync.idx.b32 %r686|%p473, %r8153, %r6042, %r6062, %r6063;
GPGPU-Sim PTX: 152 (potential) branch divergence @  PC=0x5860 (main.1.sm_70.ptx:3517) @%p4276 bra BB0_303;
GPGPU-Sim PTX:    immediate post dominator      @  PC=0x58c8 (main.1.sm_70.ptx:3533) shfl.sync.idx.b32 %r690|%p477, %r8153, %r6033, %r6062, %r6063;
GPGPU-Sim PTX: 153 (potential) branch divergence @  PC=0x58e8 (main.1.sm_70.ptx:3537) @%p4276 bra BB0_305;
GPGPU-Sim PTX:    immediate post dominator      @  PC=0x5950 (main.1.sm_70.ptx:3553) add.s32 %r24813, %r24813, 1;
GPGPU-Sim PTX: 154 (potential) branch divergence @  PC=0x5960 (main.1.sm_70.ptx:3555) @%p4280 bra BB0_297;
GPGPU-Sim PTX:    immediate post dominator      @  PC=0x5968 (main.1.sm_70.ptx:3557) xor.b32 %r8216, %r6024, 30;
GPGPU-Sim PTX: 155 (potential) branch divergence @  PC=0x59f0 (main.1.sm_70.ptx:3576) @%p4282 bra BB0_309;
GPGPU-Sim PTX:    immediate post dominator      @  PC=0x5a58 (main.1.sm_70.ptx:3592) shfl.sync.idx.b32 %r705|%p485, %r8225, %r6032, %r6062, %r6063;
GPGPU-Sim PTX: 156 (potential) branch divergence @  PC=0x5a78 (main.1.sm_70.ptx:3596) @%p4282 bra BB0_311;
GPGPU-Sim PTX:    immediate post dominator      @  PC=0x5ae0 (main.1.sm_70.ptx:3612) shfl.sync.idx.b32 %r709|%p489, %r8225, %r6042, %r6062, %r6063;
GPGPU-Sim PTX: 157 (potential) branch divergence @  PC=0x5b00 (main.1.sm_70.ptx:3616) @%p4282 bra BB0_313;
GPGPU-Sim PTX:    immediate post dominator      @  PC=0x5b68 (main.1.sm_70.ptx:3632) shfl.sync.idx.b32 %r713|%p493, %r8225, %r6033, %r6062, %r6063;
GPGPU-Sim PTX: 158 (potential) branch divergence @  PC=0x5b88 (main.1.sm_70.ptx:3636) @%p4282 bra BB0_315;
GPGPU-Sim PTX:    immediate post dominator      @  PC=0x5bf0 (main.1.sm_70.ptx:3652) add.s32 %r24814, %r24814, 1;
GPGPU-Sim PTX: 159 (potential) branch divergence @  PC=0x5c00 (main.1.sm_70.ptx:3654) @%p4286 bra BB0_307;
GPGPU-Sim PTX:    immediate post dominator      @  PC=0x5c08 (main.1.sm_70.ptx:3656) xor.b32 %r8288, %r6024, 31;
GPGPU-Sim PTX: 160 (potential) branch divergence @  PC=0x5c90 (main.1.sm_70.ptx:3675) @%p4288 bra BB0_319;
GPGPU-Sim PTX:    immediate post dominator      @  PC=0x5cf8 (main.1.sm_70.ptx:3691) shfl.sync.idx.b32 %r728|%p501, %r8297, %r6032, %r6062, %r6063;
GPGPU-Sim PTX: 161 (potential) branch divergence @  PC=0x5d18 (main.1.sm_70.ptx:3695) @%p4288 bra BB0_321;
GPGPU-Sim PTX:    immediate post dominator      @  PC=0x5d80 (main.1.sm_70.ptx:3711) shfl.sync.idx.b32 %r732|%p505, %r8297, %r6042, %r6062, %r6063;
GPGPU-Sim PTX: 162 (potential) branch divergence @  PC=0x5da0 (main.1.sm_70.ptx:3715) @%p4288 bra BB0_323;
GPGPU-Sim PTX:    immediate post dominator      @  PC=0x5e08 (main.1.sm_70.ptx:3731) shfl.sync.idx.b32 %r736|%p509, %r8297, %r6033, %r6062, %r6063;
GPGPU-Sim PTX: 163 (potential) branch divergence @  PC=0x5e28 (main.1.sm_70.ptx:3735) @%p4288 bra BB0_325;
GPGPU-Sim PTX:    immediate post dominator      @  PC=0x5e90 (main.1.sm_70.ptx:3751) add.s32 %r24815, %r24815, 1;
GPGPU-Sim PTX: 164 (potential) branch divergence @  PC=0x5ea0 (main.1.sm_70.ptx:3753) @%p4292 bra BB0_317;
GPGPU-Sim PTX:    immediate post dominator      @  PC=0x5ea8 (main.1.sm_70.ptx:3755) xor.b32 %r8360, %r6024, 32;
GPGPU-Sim PTX: 165 (potential) branch divergence @  PC=0x5f30 (main.1.sm_70.ptx:3774) @%p4294 bra BB0_329;
GPGPU-Sim PTX:    immediate post dominator      @  PC=0x5f98 (main.1.sm_70.ptx:3790) shfl.sync.idx.b32 %r751|%p517, %r8369, %r6032, %r6062, %r6063;
GPGPU-Sim PTX: 166 (potential) branch divergence @  PC=0x5fb8 (main.1.sm_70.ptx:3794) @%p4294 bra BB0_331;
GPGPU-Sim PTX:    immediate post dominator      @  PC=0x6020 (main.1.sm_70.ptx:3810) shfl.sync.idx.b32 %r755|%p521, %r8369, %r6042, %r6062, %r6063;
GPGPU-Sim PTX: 167 (potential) branch divergence @  PC=0x6040 (main.1.sm_70.ptx:3814) @%p4294 bra BB0_333;
GPGPU-Sim PTX:    immediate post dominator      @  PC=0x60a8 (main.1.sm_70.ptx:3830) shfl.sync.idx.b32 %r759|%p525, %r8369, %r6033, %r6062, %r6063;
GPGPU-Sim PTX: 168 (potential) branch divergence @  PC=0x60c8 (main.1.sm_70.ptx:3834) @%p4294 bra BB0_335;
GPGPU-Sim PTX:    immediate post dominator      @  PC=0x6130 (main.1.sm_70.ptx:3850) add.s32 %r24816, %r24816, 1;
GPGPU-Sim PTX: 169 (potential) branch divergence @  PC=0x6140 (main.1.sm_70.ptx:3852) @%p4298 bra BB0_327;
GPGPU-Sim PTX:    immediate post dominator      @  PC=0x6148 (main.1.sm_70.ptx:3854) xor.b32 %r8432, %r6024, 33;
GPGPU-Sim PTX: 170 (potential) branch divergence @  PC=0x61d0 (main.1.sm_70.ptx:3873) @%p4300 bra BB0_339;
GPGPU-Sim PTX:    immediate post dominator      @  PC=0x6238 (main.1.sm_70.ptx:3889) shfl.sync.idx.b32 %r774|%p533, %r8441, %r6032, %r6062, %r6063;
GPGPU-Sim PTX: 171 (potential) branch divergence @  PC=0x6258 (main.1.sm_70.ptx:3893) @%p4300 bra BB0_341;
GPGPU-Sim PTX:    immediate post dominator      @  PC=0x62c0 (main.1.sm_70.ptx:3909) shfl.sync.idx.b32 %r778|%p537, %r8441, %r6042, %r6062, %r6063;
GPGPU-Sim PTX: 172 (potential) branch divergence @  PC=0x62e0 (main.1.sm_70.ptx:3913) @%p4300 bra BB0_343;
GPGPU-Sim PTX:    immediate post dominator      @  PC=0x6348 (main.1.sm_70.ptx:3929) shfl.sync.idx.b32 %r782|%p541, %r8441, %r6033, %r6062, %r6063;
GPGPU-Sim PTX: 173 (potential) branch divergence @  PC=0x6368 (main.1.sm_70.ptx:3933) @%p4300 bra BB0_345;
GPGPU-Sim PTX:    immediate post dominator      @  PC=0x63d0 (main.1.sm_70.ptx:3949) add.s32 %r24817, %r24817, 1;
GPGPU-Sim PTX: 174 (potential) branch divergence @  PC=0x63e0 (main.1.sm_70.ptx:3951) @%p4304 bra BB0_337;
GPGPU-Sim PTX:    immediate post dominator      @  PC=0x63e8 (main.1.sm_70.ptx:3953) xor.b32 %r8504, %r6024, 34;
GPGPU-Sim PTX: 175 (potential) branch divergence @  PC=0x6470 (main.1.sm_70.ptx:3972) @%p4306 bra BB0_349;
GPGPU-Sim PTX:    immediate post dominator      @  PC=0x64d8 (main.1.sm_70.ptx:3988) shfl.sync.idx.b32 %r797|%p549, %r8513, %r6032, %r6062, %r6063;
GPGPU-Sim PTX: 176 (potential) branch divergence @  PC=0x64f8 (main.1.sm_70.ptx:3992) @%p4306 bra BB0_351;
GPGPU-Sim PTX:    immediate post dominator      @  PC=0x6560 (main.1.sm_70.ptx:4008) shfl.sync.idx.b32 %r801|%p553, %r8513, %r6042, %r6062, %r6063;
GPGPU-Sim PTX: 177 (potential) branch divergence @  PC=0x6580 (main.1.sm_70.ptx:4012) @%p4306 bra BB0_353;
GPGPU-Sim PTX:    immediate post dominator      @  PC=0x65e8 (main.1.sm_70.ptx:4028) shfl.sync.idx.b32 %r805|%p557, %r8513, %r6033, %r6062, %r6063;
GPGPU-Sim PTX: 178 (potential) branch divergence @  PC=0x6608 (main.1.sm_70.ptx:4032) @%p4306 bra BB0_355;
GPGPU-Sim PTX:    immediate post dominator      @  PC=0x6670 (main.1.sm_70.ptx:4048) add.s32 %r24818, %r24818, 1;
GPGPU-Sim PTX: 179 (potential) branch divergence @  PC=0x6680 (main.1.sm_70.ptx:4050) @%p4310 bra BB0_347;
GPGPU-Sim PTX:    immediate post dominator      @  PC=0x6688 (main.1.sm_70.ptx:4052) xor.b32 %r8576, %r6024, 35;
GPGPU-Sim PTX: 180 (potential) branch divergence @  PC=0x6710 (main.1.sm_70.ptx:4071) @%p4312 bra BB0_359;
GPGPU-Sim PTX:    immediate post dominator      @  PC=0x6778 (main.1.sm_70.ptx:4087) shfl.sync.idx.b32 %r820|%p565, %r8585, %r6032, %r6062, %r6063;
GPGPU-Sim PTX: 181 (potential) branch divergence @  PC=0x6798 (main.1.sm_70.ptx:4091) @%p4312 bra BB0_361;
GPGPU-Sim PTX:    immediate post dominator      @  PC=0x6800 (main.1.sm_70.ptx:4107) shfl.sync.idx.b32 %r824|%p569, %r8585, %r6042, %r6062, %r6063;
GPGPU-Sim PTX: 182 (potential) branch divergence @  PC=0x6820 (main.1.sm_70.ptx:4111) @%p4312 bra BB0_363;
GPGPU-Sim PTX:    immediate post dominator      @  PC=0x6888 (main.1.sm_70.ptx:4127) shfl.sync.idx.b32 %r828|%p573, %r8585, %r6033, %r6062, %r6063;
GPGPU-Sim PTX: 183 (potential) branch divergence @  PC=0x68a8 (main.1.sm_70.ptx:4131) @%p4312 bra BB0_365;
GPGPU-Sim PTX:    immediate post dominator      @  PC=0x6910 (main.1.sm_70.ptx:4147) add.s32 %r24819, %r24819, 1;
GPGPU-Sim PTX: 184 (potential) branch divergence @  PC=0x6920 (main.1.sm_70.ptx:4149) @%p4316 bra BB0_357;
GPGPU-Sim PTX:    immediate post dominator      @  PC=0x6928 (main.1.sm_70.ptx:4151) xor.b32 %r8648, %r6024, 36;
GPGPU-Sim PTX: 185 (potential) branch divergence @  PC=0x69b0 (main.1.sm_70.ptx:4170) @%p4318 bra BB0_369;
GPGPU-Sim PTX:    immediate post dominator      @  PC=0x6a18 (main.1.sm_70.ptx:4186) shfl.sync.idx.b32 %r843|%p581, %r8657, %r6032, %r6062, %r6063;
GPGPU-Sim PTX: 186 (potential) branch divergence @  PC=0x6a38 (main.1.sm_70.ptx:4190) @%p4318 bra BB0_371;
GPGPU-Sim PTX:    immediate post dominator      @  PC=0x6aa0 (main.1.sm_70.ptx:4206) shfl.sync.idx.b32 %r847|%p585, %r8657, %r6042, %r6062, %r6063;
GPGPU-Sim PTX: 187 (potential) branch divergence @  PC=0x6ac0 (main.1.sm_70.ptx:4210) @%p4318 bra BB0_373;
GPGPU-Sim PTX:    immediate post dominator      @  PC=0x6b28 (main.1.sm_70.ptx:4226) shfl.sync.idx.b32 %r851|%p589, %r8657, %r6033, %r6062, %r6063;
GPGPU-Sim PTX: 188 (potential) branch divergence @  PC=0x6b48 (main.1.sm_70.ptx:4230) @%p4318 bra BB0_375;
GPGPU-Sim PTX:    immediate post dominator      @  PC=0x6bb0 (main.1.sm_70.ptx:4246) add.s32 %r24820, %r24820, 1;
GPGPU-Sim PTX: 189 (potential) branch divergence @  PC=0x6bc0 (main.1.sm_70.ptx:4248) @%p4322 bra BB0_367;
GPGPU-Sim PTX:    immediate post dominator      @  PC=0x6bc8 (main.1.sm_70.ptx:4250) xor.b32 %r8720, %r6024, 37;
GPGPU-Sim PTX: 190 (potential) branch divergence @  PC=0x6c50 (main.1.sm_70.ptx:4269) @%p4324 bra BB0_379;
GPGPU-Sim PTX:    immediate post dominator      @  PC=0x6cb8 (main.1.sm_70.ptx:4285) shfl.sync.idx.b32 %r866|%p597, %r8729, %r6032, %r6062, %r6063;
GPGPU-Sim PTX: 191 (potential) branch divergence @  PC=0x6cd8 (main.1.sm_70.ptx:4289) @%p4324 bra BB0_381;
GPGPU-Sim PTX:    immediate post dominator      @  PC=0x6d40 (main.1.sm_70.ptx:4305) shfl.sync.idx.b32 %r870|%p601, %r8729, %r6042, %r6062, %r6063;
GPGPU-Sim PTX: 192 (potential) branch divergence @  PC=0x6d60 (main.1.sm_70.ptx:4309) @%p4324 bra BB0_383;
GPGPU-Sim PTX:    immediate post dominator      @  PC=0x6dc8 (main.1.sm_70.ptx:4325) shfl.sync.idx.b32 %r874|%p605, %r8729, %r6033, %r6062, %r6063;
GPGPU-Sim PTX: 193 (potential) branch divergence @  PC=0x6de8 (main.1.sm_70.ptx:4329) @%p4324 bra BB0_385;
GPGPU-Sim PTX:    immediate post dominator      @  PC=0x6e50 (main.1.sm_70.ptx:4345) add.s32 %r24821, %r24821, 1;
GPGPU-Sim PTX: 194 (potential) branch divergence @  PC=0x6e60 (main.1.sm_70.ptx:4347) @%p4328 bra BB0_377;
GPGPU-Sim PTX:    immediate post dominator      @  PC=0x6e68 (main.1.sm_70.ptx:4349) xor.b32 %r8792, %r6024, 38;
GPGPU-Sim PTX: 195 (potential) branch divergence @  PC=0x6ef0 (main.1.sm_70.ptx:4368) @%p4330 bra BB0_389;
GPGPU-Sim PTX:    immediate post dominator      @  PC=0x6f58 (main.1.sm_70.ptx:4384) shfl.sync.idx.b32 %r889|%p613, %r8801, %r6032, %r6062, %r6063;
GPGPU-Sim PTX: 196 (potential) branch divergence @  PC=0x6f78 (main.1.sm_70.ptx:4388) @%p4330 bra BB0_391;
GPGPU-Sim PTX:    immediate post dominator      @  PC=0x6fe0 (main.1.sm_70.ptx:4404) shfl.sync.idx.b32 %r893|%p617, %r8801, %r6042, %r6062, %r6063;
GPGPU-Sim PTX: 197 (potential) branch divergence @  PC=0x7000 (main.1.sm_70.ptx:4408) @%p4330 bra BB0_393;
GPGPU-Sim PTX:    immediate post dominator      @  PC=0x7068 (main.1.sm_70.ptx:4424) shfl.sync.idx.b32 %r897|%p621, %r8801, %r6033, %r6062, %r6063;
GPGPU-Sim PTX: 198 (potential) branch divergence @  PC=0x7088 (main.1.sm_70.ptx:4428) @%p4330 bra BB0_395;
GPGPU-Sim PTX:    immediate post dominator      @  PC=0x70f0 (main.1.sm_70.ptx:4444) add.s32 %r24822, %r24822, 1;
GPGPU-Sim PTX: 199 (potential) branch divergence @  PC=0x7100 (main.1.sm_70.ptx:4446) @%p4334 bra BB0_387;
GPGPU-Sim PTX:    immediate post dominator      @  PC=0x7108 (main.1.sm_70.ptx:4448) xor.b32 %r8864, %r6024, 39;
GPGPU-Sim PTX: 200 (potential) branch divergence @  PC=0x7190 (main.1.sm_70.ptx:4467) @%p4336 bra BB0_399;
GPGPU-Sim PTX:    immediate post dominator      @  PC=0x71f8 (main.1.sm_70.ptx:4483) shfl.sync.idx.b32 %r912|%p629, %r8873, %r6032, %r6062, %r6063;
GPGPU-Sim PTX: 201 (potential) branch divergence @  PC=0x7218 (main.1.sm_70.ptx:4487) @%p4336 bra BB0_401;
GPGPU-Sim PTX:    immediate post dominator      @  PC=0x7280 (main.1.sm_70.ptx:4503) shfl.sync.idx.b32 %r916|%p633, %r8873, %r6042, %r6062, %r6063;
GPGPU-Sim PTX: 202 (potential) branch divergence @  PC=0x72a0 (main.1.sm_70.ptx:4507) @%p4336 bra BB0_403;
GPGPU-Sim PTX:    immediate post dominator      @  PC=0x7308 (main.1.sm_70.ptx:4523) shfl.sync.idx.b32 %r920|%p637, %r8873, %r6033, %r6062, %r6063;
GPGPU-Sim PTX: 203 (potential) branch divergence @  PC=0x7328 (main.1.sm_70.ptx:4527) @%p4336 bra BB0_405;
GPGPU-Sim PTX:    immediate post dominator      @  PC=0x7390 (main.1.sm_70.ptx:4543) add.s32 %r24823, %r24823, 1;
GPGPU-Sim PTX: 204 (potential) branch divergence @  PC=0x73a0 (main.1.sm_70.ptx:4545) @%p4340 bra BB0_397;
GPGPU-Sim PTX:    immediate post dominator      @  PC=0x73a8 (main.1.sm_70.ptx:4547) xor.b32 %r8936, %r6024, 40;
GPGPU-Sim PTX: 205 (potential) branch divergence @  PC=0x7430 (main.1.sm_70.ptx:4566) @%p4342 bra BB0_409;
GPGPU-Sim PTX:    immediate post dominator      @  PC=0x7498 (main.1.sm_70.ptx:4582) shfl.sync.idx.b32 %r935|%p645, %r8945, %r6032, %r6062, %r6063;
GPGPU-Sim PTX: 206 (potential) branch divergence @  PC=0x74b8 (main.1.sm_70.ptx:4586) @%p4342 bra BB0_411;
GPGPU-Sim PTX:    immediate post dominator      @  PC=0x7520 (main.1.sm_70.ptx:4602) shfl.sync.idx.b32 %r939|%p649, %r8945, %r6042, %r6062, %r6063;
GPGPU-Sim PTX: 207 (potential) branch divergence @  PC=0x7540 (main.1.sm_70.ptx:4606) @%p4342 bra BB0_413;
GPGPU-Sim PTX:    immediate post dominator      @  PC=0x75a8 (main.1.sm_70.ptx:4622) shfl.sync.idx.b32 %r943|%p653, %r8945, %r6033, %r6062, %r6063;
GPGPU-Sim PTX: 208 (potential) branch divergence @  PC=0x75c8 (main.1.sm_70.ptx:4626) @%p4342 bra BB0_415;
GPGPU-Sim PTX:    immediate post dominator      @  PC=0x7630 (main.1.sm_70.ptx:4642) add.s32 %r24824, %r24824, 1;
GPGPU-Sim PTX: 209 (potential) branch divergence @  PC=0x7640 (main.1.sm_70.ptx:4644) @%p4346 bra BB0_407;
GPGPU-Sim PTX:    immediate post dominator      @  PC=0x7648 (main.1.sm_70.ptx:4646) xor.b32 %r9008, %r6024, 41;
GPGPU-Sim PTX: 210 (potential) branch divergence @  PC=0x76d0 (main.1.sm_70.ptx:4665) @%p4348 bra BB0_419;
GPGPU-Sim PTX:    immediate post dominator      @  PC=0x7738 (main.1.sm_70.ptx:4681) shfl.sync.idx.b32 %r958|%p661, %r9017, %r6032, %r6062, %r6063;
GPGPU-Sim PTX: 211 (potential) branch divergence @  PC=0x7758 (main.1.sm_70.ptx:4685) @%p4348 bra BB0_421;
GPGPU-Sim PTX:    immediate post dominator      @  PC=0x77c0 (main.1.sm_70.ptx:4701) shfl.sync.idx.b32 %r962|%p665, %r9017, %r6042, %r6062, %r6063;
GPGPU-Sim PTX: 212 (potential) branch divergence @  PC=0x77e0 (main.1.sm_70.ptx:4705) @%p4348 bra BB0_423;
GPGPU-Sim PTX:    immediate post dominator      @  PC=0x7848 (main.1.sm_70.ptx:4721) shfl.sync.idx.b32 %r966|%p669, %r9017, %r6033, %r6062, %r6063;
GPGPU-Sim PTX: 213 (potential) branch divergence @  PC=0x7868 (main.1.sm_70.ptx:4725) @%p4348 bra BB0_425;
GPGPU-Sim PTX:    immediate post dominator      @  PC=0x78d0 (main.1.sm_70.ptx:4741) add.s32 %r24825, %r24825, 1;
GPGPU-Sim PTX: 214 (potential) branch divergence @  PC=0x78e0 (main.1.sm_70.ptx:4743) @%p4352 bra BB0_417;
GPGPU-Sim PTX:    immediate post dominator      @  PC=0x78e8 (main.1.sm_70.ptx:4745) xor.b32 %r9080, %r6024, 42;
GPGPU-Sim PTX: 215 (potential) branch divergence @  PC=0x7970 (main.1.sm_70.ptx:4764) @%p4354 bra BB0_429;
GPGPU-Sim PTX:    immediate post dominator      @  PC=0x79d8 (main.1.sm_70.ptx:4780) shfl.sync.idx.b32 %r981|%p677, %r9089, %r6032, %r6062, %r6063;
GPGPU-Sim PTX: 216 (potential) branch divergence @  PC=0x79f8 (main.1.sm_70.ptx:4784) @%p4354 bra BB0_431;
GPGPU-Sim PTX:    immediate post dominator      @  PC=0x7a60 (main.1.sm_70.ptx:4800) shfl.sync.idx.b32 %r985|%p681, %r9089, %r6042, %r6062, %r6063;
[...]

------------------------------------------------------------------------

Row_Buffer_Locality = 0.984375
Row_Buffer_Locality_read = 0.984375
Row_Buffer_Locality_write = -nan
Bank_Level_Parallism = 1.000000
Bank_Level_Parallism_Col = 1.000000
Bank_Level_Parallism_Ready = 1.000000
write_to_read_ratio_blp_rw_average = 0.000000
GrpLevelPara = 1.000000 

BW Util details:
bwutil = 0.000190 
total_CMD = 2693348 
util_bw = 512 
Wasted_Col = 576 
Wasted_Row = 0 
Idle = 2692260 

BW Util Bottlenecks: 
RCDc_limit = 96 
RCDWRc_limit = 0 
WTRc_limit = 0 
RTWc_limit = 0 
CCDLc_limit = 480 
rwq = 0 
CCDLc_limit_alone = 480 
WTRc_limit_alone = 0 
RTWc_limit_alone = 0 

Commands details: 
total_CMD = 2693348 
n_nop = 2692828 
Read = 512 
Write = 0 
L2_Alloc = 0 
L2_WB = 0 
n_act = 8 
n_pre = 0 
n_ref = 0 
n_req = 512 
total_req = 512 

Dual Bus Interface Util: 
issued_total_row = 8 
issued_total_col = 512 
Row_Bus_Util =  0.000003 
CoL_Bus_Util = 0.000190 
Either_Row_CoL_Bus_Util = 0.000193 
Issued_on_Two_Bus_Simul_Util = 0.000000 
issued_two_Eff = 0.000000 
queue_avg = 0.001738 


dram_util_bins: 0 0 0 0 0 0 0 0 0 0
dram_eff_bins: 0 0 0 0 0 0 0 0 0 0
mrqq: max=13 avg=0.00173761
Memory Partition 29: 
Cache L2_bank_058:
MSHR contents

Cache L2_bank_059:
MSHR contents

In Dram Latency Queue (total = 0): 
DRAM[29]: 16 bks, busW=16 BL=2 CL=12, tRRD=3 tCCD=1, tRCD=12 tRAS=28 tRP=12 tRC=40
n_cmd=2693348 n_nop=2692828 n_act=8 n_pre=0 n_ref_event=0 n_req=512 n_rd=512 n_rd_L2_A=0 n_write=0 n_wr_bk=0 bw_util=0.0001901
n_activity=1472 dram_eff=0.3478
bk0: 64a 2693276i bk1: 64a 2693276i bk2: 64a 2693276i bk3: 64a 2693276i bk4: 64a 2693276i bk5: 64a 2693276i bk6: 64a 2693276i bk7: 64a 2693276i bk8: 0a 2693348i bk9: 0a 2693348i bk10: 0a 2693348i bk11: 0a 2693348i bk12: 0a 2693348i bk13: 0a 2693348i bk14: 0a 2693348i bk15: 0a 2693348i 

------------------------------------------------------------------------

Row_Buffer_Locality = 0.984375
Row_Buffer_Locality_read = 0.984375
Row_Buffer_Locality_write = -nan
Bank_Level_Parallism = 1.000000
Bank_Level_Parallism_Col = 1.000000
Bank_Level_Parallism_Ready = 1.000000
write_to_read_ratio_blp_rw_average = 0.000000
GrpLevelPara = 1.000000 

BW Util details:
bwutil = 0.000190 
total_CMD = 2693348 
util_bw = 512 
Wasted_Col = 576 
Wasted_Row = 0 
Idle = 2692260 

BW Util Bottlenecks: 
RCDc_limit = 96 
RCDWRc_limit = 0 
WTRc_limit = 0 
RTWc_limit = 0 
CCDLc_limit = 480 
rwq = 0 
CCDLc_limit_alone = 480 
WTRc_limit_alone = 0 
RTWc_limit_alone = 0 

Commands details: 
total_CMD = 2693348 
n_nop = 2692828 
Read = 512 
Write = 0 
L2_Alloc = 0 
L2_WB = 0 
n_act = 8 
n_pre = 0 
n_ref = 0 
n_req = 512 
total_req = 512 

Dual Bus Interface Util: 
issued_total_row = 8 
issued_total_col = 512 
Row_Bus_Util =  0.000003 
CoL_Bus_Util = 0.000190 
Either_Row_CoL_Bus_Util = 0.000193 
Issued_on_Two_Bus_Simul_Util = 0.000000 
issued_two_Eff = 0.000000 
queue_avg = 0.001755 


dram_util_bins: 0 0 0 0 0 0 0 0 0 0
dram_eff_bins: 0 0 0 0 0 0 0 0 0 0
mrqq: max=13 avg=0.00175544
Memory Partition 30: 
Cache L2_bank_060:
MSHR contents

Cache L2_bank_061:
MSHR contents

In Dram Latency Queue (total = 0): 
DRAM[30]: 16 bks, busW=16 BL=2 CL=12, tRRD=3 tCCD=1, tRCD=12 tRAS=28 tRP=12 tRC=40
n_cmd=2693348 n_nop=2692828 n_act=8 n_pre=0 n_ref_event=0 n_req=512 n_rd=512 n_rd_L2_A=0 n_write=0 n_wr_bk=0 bw_util=0.0001901
n_activity=1472 dram_eff=0.3478
bk0: 64a 2693276i bk1: 64a 2693277i bk2: 64a 2693276i bk3: 64a 2693277i bk4: 64a 2693276i bk5: 64a 2693277i bk6: 64a 2693276i bk7: 64a 2693277i bk8: 0a 2693348i bk9: 0a 2693348i bk10: 0a 2693348i bk11: 0a 2693348i bk12: 0a 2693348i bk13: 0a 2693348i bk14: 0a 2693348i bk15: 0a 2693348i 

------------------------------------------------------------------------

Row_Buffer_Locality = 0.984375
Row_Buffer_Locality_read = 0.984375
Row_Buffer_Locality_write = -nan
Bank_Level_Parallism = 1.000000
Bank_Level_Parallism_Col = 1.000000
Bank_Level_Parallism_Ready = 1.000000
write_to_read_ratio_blp_rw_average = 0.000000
GrpLevelPara = 1.000000 

BW Util details:
bwutil = 0.000190 
total_CMD = 2693348 
util_bw = 512 
Wasted_Col = 572 
Wasted_Row = 0 
Idle = 2692264 

BW Util Bottlenecks: 
RCDc_limit = 96 
RCDWRc_limit = 0 
WTRc_limit = 0 
RTWc_limit = 0 
CCDLc_limit = 476 
rwq = 0 
CCDLc_limit_alone = 476 
WTRc_limit_alone = 0 
RTWc_limit_alone = 0 

Commands details: 
total_CMD = 2693348 
n_nop = 2692828 
Read = 512 
Write = 0 
L2_Alloc = 0 
L2_WB = 0 
n_act = 8 
n_pre = 0 
n_ref = 0 
n_req = 512 
total_req = 512 

Dual Bus Interface Util: 
issued_total_row = 8 
issued_total_col = 512 
Row_Bus_Util =  0.000003 
CoL_Bus_Util = 0.000190 
Either_Row_CoL_Bus_Util = 0.000193 
Issued_on_Two_Bus_Simul_Util = 0.000000 
issued_two_Eff = 0.000000 
queue_avg = 0.001739 


dram_util_bins: 0 0 0 0 0 0 0 0 0 0
dram_eff_bins: 0 0 0 0 0 0 0 0 0 0
mrqq: max=13 avg=0.0017391
Memory Partition 31: 
Cache L2_bank_062:
MSHR contents

Cache L2_bank_063:
MSHR contents

In Dram Latency Queue (total = 0): 
DRAM[31]: 16 bks, busW=16 BL=2 CL=12, tRRD=3 tCCD=1, tRCD=12 tRAS=28 tRP=12 tRC=40
n_cmd=2693348 n_nop=2692828 n_act=8 n_pre=0 n_ref_event=0 n_req=512 n_rd=512 n_rd_L2_A=0 n_write=0 n_wr_bk=0 bw_util=0.0001901
n_activity=1472 dram_eff=0.3478
bk0: 64a 2693276i bk1: 64a 2693278i bk2: 64a 2693276i bk3: 64a 2693278i bk4: 64a 2693276i bk5: 64a 2693278i bk6: 64a 2693276i bk7: 64a 2693278i bk8: 0a 2693348i bk9: 0a 2693348i bk10: 0a 2693348i bk11: 0a 2693348i bk12: 0a 2693348i bk13: 0a 2693348i bk14: 0a 2693348i bk15: 0a 2693348i 

------------------------------------------------------------------------

Row_Buffer_Locality = 0.984375
Row_Buffer_Locality_read = 0.984375
Row_Buffer_Locality_write = -nan
Bank_Level_Parallism = 1.000000
Bank_Level_Parallism_Col = 1.000000
Bank_Level_Parallism_Ready = 1.000000
write_to_read_ratio_blp_rw_average = 0.000000
GrpLevelPara = 1.000000 

BW Util details:
bwutil = 0.000190 
total_CMD = 2693348 
util_bw = 512 
Wasted_Col = 568 
Wasted_Row = 0 
Idle = 2692268 

BW Util Bottlenecks: 
RCDc_limit = 96 
RCDWRc_limit = 0 
WTRc_limit = 0 
RTWc_limit = 0 
CCDLc_limit = 472 
rwq = 0 
CCDLc_limit_alone = 472 
WTRc_limit_alone = 0 
RTWc_limit_alone = 0 

Commands details: 
total_CMD = 2693348 
n_nop = 2692828 
Read = 512 
Write = 0 
L2_Alloc = 0 
L2_WB = 0 
n_act = 8 
n_pre = 0 
n_ref = 0 
n_req = 512 
total_req = 512 

Dual Bus Interface Util: 
issued_total_row = 8 
issued_total_col = 512 
Row_Bus_Util =  0.000003 
CoL_Bus_Util = 0.000190 
Either_Row_CoL_Bus_Util = 0.000193 
Issued_on_Two_Bus_Simul_Util = 0.000000 
issued_two_Eff = 0.000000 
queue_avg = 0.001699 


dram_util_bins: 0 0 0 0 0 0 0 0 0 0
dram_eff_bins: 0 0 0 0 0 0 0 0 0 0
mrqq: max=13 avg=0.001699

========= L2 cache stats =========
L2_cache_bank[0]: Access = 590, Miss = 320, Miss_rate = 0.542, Pending_hits = 0, Reservation_fails = 0
L2_cache_bank[1]: Access = 512, Miss = 320, Miss_rate = 0.625, Pending_hits = 0, Reservation_fails = 0
L2_cache_bank[2]: Access = 512, Miss = 320, Miss_rate = 0.625, Pending_hits = 0, Reservation_fails = 0
L2_cache_bank[3]: Access = 512, Miss = 320, Miss_rate = 0.625, Pending_hits = 0, Reservation_fails = 0
L2_cache_bank[4]: Access = 640, Miss = 385, Miss_rate = 0.602, Pending_hits = 0, Reservation_fails = 0
L2_cache_bank[5]: Access = 512, Miss = 320, Miss_rate = 0.625, Pending_hits = 0, Reservation_fails = 0
L2_cache_bank[6]: Access = 512, Miss = 320, Miss_rate = 0.625, Pending_hits = 0, Reservation_fails = 0
L2_cache_bank[7]: Access = 512, Miss = 320, Miss_rate = 0.625, Pending_hits = 0, Reservation_fails = 0
L2_cache_bank[8]: Access = 512, Miss = 320, Miss_rate = 0.625, Pending_hits = 0, Reservation_fails = 0
L2_cache_bank[9]: Access = 512, Miss = 320, Miss_rate = 0.625, Pending_hits = 0, Reservation_fails = 0
L2_cache_bank[10]: Access = 512, Miss = 320, Miss_rate = 0.625, Pending_hits = 0, Reservation_fails = 0
L2_cache_bank[11]: Access = 512, Miss = 320, Miss_rate = 0.625, Pending_hits = 0, Reservation_fails = 0
L2_cache_bank[12]: Access = 512, Miss = 320, Miss_rate = 0.625, Pending_hits = 0, Reservation_fails = 0
L2_cache_bank[13]: Access = 512, Miss = 320, Miss_rate = 0.625, Pending_hits = 0, Reservation_fails = 0
L2_cache_bank[14]: Access = 512, Miss = 320, Miss_rate = 0.625, Pending_hits = 0, Reservation_fails = 0
L2_cache_bank[15]: Access = 512, Miss = 320, Miss_rate = 0.625, Pending_hits = 0, Reservation_fails = 0
L2_cache_bank[16]: Access = 512, Miss = 320, Miss_rate = 0.625, Pending_hits = 0, Reservation_fails = 0
L2_cache_bank[17]: Access = 512, Miss = 320, Miss_rate = 0.625, Pending_hits = 0, Reservation_fails = 0
L2_cache_bank[18]: Access = 512, Miss = 320, Miss_rate = 0.625, Pending_hits = 0, Reservation_fails = 0
L2_cache_bank[19]: Access = 512, Miss = 320, Miss_rate = 0.625, Pending_hits = 0, Reservation_fails = 0
L2_cache_bank[20]: Access = 512, Miss = 320, Miss_rate = 0.625, Pending_hits = 0, Reservation_fails = 0
L2_cache_bank[21]: Access = 512, Miss = 320, Miss_rate = 0.625, Pending_hits = 0, Reservation_fails = 0
L2_cache_bank[22]: Access = 512, Miss = 320, Miss_rate = 0.625, Pending_hits = 0, Reservation_fails = 0
L2_cache_bank[23]: Access = 512, Miss = 320, Miss_rate = 0.625, Pending_hits = 0, Reservation_fails = 0
L2_cache_bank[24]: Access = 512, Miss = 320, Miss_rate = 0.625, Pending_hits = 0, Reservation_fails = 0
L2_cache_bank[25]: Access = 512, Miss = 320, Miss_rate = 0.625, Pending_hits = 0, Reservation_fails = 0
L2_cache_bank[26]: Access = 512, Miss = 320, Miss_rate = 0.625, Pending_hits = 0, Reservation_fails = 0
L2_cache_bank[27]: Access = 512, Miss = 320, Miss_rate = 0.625, Pending_hits = 0, Reservation_fails = 0
L2_cache_bank[28]: Access = 512, Miss = 320, Miss_rate = 0.625, Pending_hits = 0, Reservation_fails = 0
L2_cache_bank[29]: Access = 512, Miss = 320, Miss_rate = 0.625, Pending_hits = 0, Reservation_fails = 0
L2_cache_bank[30]: Access = 512, Miss = 320, Miss_rate = 0.625, Pending_hits = 0, Reservation_fails = 0
L2_cache_bank[31]: Access = 512, Miss = 320, Miss_rate = 0.625, Pending_hits = 0, Reservation_fails = 0
L2_cache_bank[32]: Access = 512, Miss = 320, Miss_rate = 0.625, Pending_hits = 0, Reservation_fails = 0
L2_cache_bank[33]: Access = 512, Miss = 320, Miss_rate = 0.625, Pending_hits = 0, Reservation_fails = 0
L2_cache_bank[34]: Access = 512, Miss = 320, Miss_rate = 0.625, Pending_hits = 0, Reservation_fails = 0
L2_cache_bank[35]: Access = 512, Miss = 320, Miss_rate = 0.625, Pending_hits = 0, Reservation_fails = 0
L2_cache_bank[36]: Access = 512, Miss = 320, Miss_rate = 0.625, Pending_hits = 0, Reservation_fails = 0
L2_cache_bank[37]: Access = 512, Miss = 320, Miss_rate = 0.625, Pending_hits = 0, Reservation_fails = 0
L2_cache_bank[38]: Access = 512, Miss = 320, Miss_rate = 0.625, Pending_hits = 0, Reservation_fails = 0
L2_cache_bank[39]: Access = 512, Miss = 320, Miss_rate = 0.625, Pending_hits = 0, Reservation_fails = 0
L2_cache_bank[40]: Access = 512, Miss = 320, Miss_rate = 0.625, Pending_hits = 0, Reservation_fails = 0
L2_cache_bank[41]: Access = 512, Miss = 320, Miss_rate = 0.625, Pending_hits = 0, Reservation_fails = 0
L2_cache_bank[42]: Access = 512, Miss = 320, Miss_rate = 0.625, Pending_hits = 0, Reservation_fails = 0
L2_cache_bank[43]: Access = 512, Miss = 320, Miss_rate = 0.625, Pending_hits = 0, Reservation_fails = 0
L2_cache_bank[44]: Access = 512, Miss = 320, Miss_rate = 0.625, Pending_hits = 0, Reservation_fails = 0
L2_cache_bank[45]: Access = 512, Miss = 320, Miss_rate = 0.625, Pending_hits = 0, Reservation_fails = 0
L2_cache_bank[46]: Access = 512, Miss = 320, Miss_rate = 0.625, Pending_hits = 0, Reservation_fails = 0
L2_cache_bank[47]: Access = 512, Miss = 320, Miss_rate = 0.625, Pending_hits = 0, Reservation_fails = 0
L2_cache_bank[48]: Access = 512, Miss = 320, Miss_rate = 0.625, Pending_hits = 0, Reservation_fails = 0
L2_cache_bank[49]: Access = 512, Miss = 320, Miss_rate = 0.625, Pending_hits = 0, Reservation_fails = 0
L2_cache_bank[50]: Access = 512, Miss = 320, Miss_rate = 0.625, Pending_hits = 0, Reservation_fails = 0
L2_cache_bank[51]: Access = 512, Miss = 320, Miss_rate = 0.625, Pending_hits = 0, Reservation_fails = 0
L2_cache_bank[52]: Access = 512, Miss = 320, Miss_rate = 0.625, Pending_hits = 0, Reservation_fails = 0
L2_cache_bank[53]: Access = 512, Miss = 320, Miss_rate = 0.625, Pending_hits = 0, Reservation_fails = 0
L2_cache_bank[54]: Access = 512, Miss = 320, Miss_rate = 0.625, Pending_hits = 0, Reservation_fails = 0
L2_cache_bank[55]: Access = 512, Miss = 320, Miss_rate = 0.625, Pending_hits = 0, Reservation_fails = 0
L2_cache_bank[56]: Access = 512, Miss = 320, Miss_rate = 0.625, Pending_hits = 0, Reservation_fails = 0
L2_cache_bank[57]: Access = 512, Miss = 320, Miss_rate = 0.625, Pending_hits = 0, Reservation_fails = 0
L2_cache_bank[58]: Access = 512, Miss = 320, Miss_rate = 0.625, Pending_hits = 0, Reservation_fails = 0
L2_cache_bank[59]: Access = 512, Miss = 320, Miss_rate = 0.625, Pending_hits = 0, Reservation_fails = 0
L2_cache_bank[60]: Access = 512, Miss = 320, Miss_rate = 0.625, Pending_hits = 0, Reservation_fails = 0
L2_cache_bank[61]: Access = 512, Miss = 320, Miss_rate = 0.625, Pending_hits = 0, Reservation_fails = 0
L2_cache_bank[62]: Access = 512, Miss = 320, Miss_rate = 0.625, Pending_hits = 0, Reservation_fails = 0
L2_cache_bank[63]: Access = 512, Miss = 320, Miss_rate = 0.625, Pending_hits = 0, Reservation_fails = 0
L2_total_cache_accesses = 32974
L2_total_cache_misses = 20545
L2_total_cache_miss_rate = 0.6231
L2_total_cache_pending_hits = 0
L2_total_cache_reservation_fails = 0
L2_total_cache_breakdown:
	L2_cache_stats_breakdown[GLOBAL_ACC_R][HIT] = 78
	L2_cache_stats_breakdown[GLOBAL_ACC_R][HIT_RESERVED] = 0
	L2_cache_stats_breakdown[GLOBAL_ACC_R][MISS] = 4096
	L2_cache_stats_breakdown[GLOBAL_ACC_R][RESERVATION_FAIL] = 0
	L2_cache_stats_breakdown[GLOBAL_ACC_R][SECTOR_MISS] = 12288
	L2_cache_stats_breakdown[LOCAL_ACC_R][HIT] = 0
	L2_cache_stats_breakdown[LOCAL_ACC_R][HIT_RESERVED] = 0
	L2_cache_stats_breakdown[LOCAL_ACC_R][MISS] = 0
	L2_cache_stats_breakdown[LOCAL_ACC_R][RESERVATION_FAIL] = 0
	L2_cache_stats_breakdown[LOCAL_ACC_R][SECTOR_MISS] = 0
	L2_cache_stats_breakdown[CONST_ACC_R][HIT] = 0
	L2_cache_stats_breakdown[CONST_ACC_R][HIT_RESERVED] = 0
	L2_cache_stats_breakdown[CONST_ACC_R][MISS] = 0
	L2_cache_stats_breakdown[CONST_ACC_R][RESERVATION_FAIL] = 0
	L2_cache_stats_breakdown[CONST_ACC_R][SECTOR_MISS] = 0
	L2_cache_stats_breakdown[TEXTURE_ACC_R][HIT] = 0
	L2_cache_stats_breakdown[TEXTURE_ACC_R][HIT_RESERVED] = 0
	L2_cache_stats_breakdown[TEXTURE_ACC_R][MISS] = 0
	L2_cache_stats_breakdown[TEXTURE_ACC_R][RESERVATION_FAIL] = 0
	L2_cache_stats_breakdown[TEXTURE_ACC_R][SECTOR_MISS] = 0
	L2_cache_stats_breakdown[GLOBAL_ACC_W][HIT] = 63
	L2_cache_stats_breakdown[GLOBAL_ACC_W][HIT_RESERVED] = 0
	L2_cache_stats_breakdown[GLOBAL_ACC_W][MISS] = 2
	L2_cache_stats_breakdown[GLOBAL_ACC_W][RESERVATION_FAIL] = 0
	L2_cache_stats_breakdown[GLOBAL_ACC_W][SECTOR_MISS] = 63
	L2_cache_stats_breakdown[LOCAL_ACC_W][HIT] = 12288
	L2_cache_stats_breakdown[LOCAL_ACC_W][HIT_RESERVED] = 0
	L2_cache_stats_breakdown[LOCAL_ACC_W][MISS] = 1024
	L2_cache_stats_breakdown[LOCAL_ACC_W][RESERVATION_FAIL] = 0
	L2_cache_stats_breakdown[LOCAL_ACC_W][SECTOR_MISS] = 3072
	L2_cache_stats_breakdown[L1_WRBK_ACC][HIT] = 0
	L2_cache_stats_breakdown[L1_WRBK_ACC][HIT_RESERVED] = 0
	L2_cache_stats_breakdown[L1_WRBK_ACC][MISS] = 0
	L2_cache_stats_breakdown[L1_WRBK_ACC][RESERVATION_FAIL] = 0
	L2_cache_stats_breakdown[L1_WRBK_ACC][SECTOR_MISS] = 0
	L2_cache_stats_breakdown[L2_WRBK_ACC][HIT] = 0
	L2_cache_stats_breakdown[L2_WRBK_ACC][HIT_RESERVED] = 0
	L2_cache_stats_breakdown[L2_WRBK_ACC][MISS] = 0
	L2_cache_stats_breakdown[L2_WRBK_ACC][RESERVATION_FAIL] = 0
	L2_cache_stats_breakdown[L2_WRBK_ACC][SECTOR_MISS] = 0
	L2_cache_stats_breakdown[INST_ACC_R][HIT] = 0
	L2_cache_stats_breakdown[INST_ACC_R][HIT_RESERVED] = 0
	L2_cache_stats_breakdown[INST_ACC_R][MISS] = 0
	L2_cache_stats_breakdown[INST_ACC_R][RESERVATION_FAIL] = 0
	L2_cache_stats_breakdown[INST_ACC_R][SECTOR_MISS] = 0
	L2_cache_stats_breakdown[L1_WR_ALLOC_R][HIT] = 0
	L2_cache_stats_breakdown[L1_WR_ALLOC_R][HIT_RESERVED] = 0
	L2_cache_stats_breakdown[L1_WR_ALLOC_R][MISS] = 0
	L2_cache_stats_breakdown[L1_WR_ALLOC_R][RESERVATION_FAIL] = 0
	L2_cache_stats_breakdown[L1_WR_ALLOC_R][SECTOR_MISS] = 0
	L2_cache_stats_breakdown[L2_WR_ALLOC_R][HIT] = 0
	L2_cache_stats_breakdown[L2_WR_ALLOC_R][HIT_RESERVED] = 0
	L2_cache_stats_breakdown[L2_WR_ALLOC_R][MISS] = 0
	L2_cache_stats_breakdown[L2_WR_ALLOC_R][RESERVATION_FAIL] = 0
	L2_cache_stats_breakdown[L2_WR_ALLOC_R][SECTOR_MISS] = 0
	L2_cache_stats_breakdown[GLOBAL_ACC_R][TOTAL_ACCESS] = 16462
	L2_cache_stats_breakdown[GLOBAL_ACC_W][TOTAL_ACCESS] = 128
	L2_cache_stats_breakdown[LOCAL_ACC_W][TOTAL_ACCESS] = 16384
L2_total_cache_reservation_fail_breakdown:
L2_cache_data_port_util = 0.000
L2_cache_fill_port_util = 0.000

icnt_total_pkts_mem_to_simt=32974
icnt_total_pkts_simt_to_mem=32974
LD_mem_lat_dist  0 0 0 0 0 0 0 0 0 0 0 0 0 0 0 0 0 0 0 0 0 0 0 0 0 0 0
ST_mem_lat_dist  0 0 0 0 0 0 0 0 0 0 0 0 0 0 0 0 0 0 0 0 0 0 0 0 0 0 0
----------------------------Interconnect-DETAILS--------------------------------
Req_Network_injected_packets_num = 32974
Req_Network_cycles = 3586905
Req_Network_injected_packets_per_cycle =       0.0092 
Req_Network_conflicts_per_cycle =       0.0102
Req_Network_conflicts_per_cycle_util =       1.3121
Req_Bank_Level_Parallism =       1.1775
Req_Network_in_buffer_full_per_cycle =       0.0000
Req_Network_in_buffer_avg_util =       0.0156
Req_Network_out_buffer_full_per_cycle =       0.0000
Req_Network_out_buffer_avg_util =       0.0001

Reply_Network_injected_packets_num = 32974
Reply_Network_cycles = 3586905
Reply_Network_injected_packets_per_cycle =        0.0092
Reply_Network_conflicts_per_cycle =        0.0000
Reply_Network_conflicts_per_cycle_util =       0.0033
Reply_Bank_Level_Parallism =       1.3604
Reply_Network_in_buffer_full_per_cycle =       0.0000
Reply_Network_in_buffer_avg_util =       0.0000
Reply_Network_out_buffer_full_per_cycle =       0.0000
Reply_Network_out_buffer_avg_util =       0.0001
----------------------------END-of-Interconnect-DETAILS-------------------------


gpgpu_simulation_time = 0 days, 3 hrs, 22 min, 23 sec (12143 sec)
gpgpu_simulation_rate = 39778 (inst/sec)
gpgpu_simulation_rate = 295 (cycle/sec)
gpgpu_silicon_slowdown = 3837288x
GPGPU-Sim: detected inactive GPU simulation thread
GPGPU-Sim PTX: Setting up arguments for 4 bytes starting at 0x7ffd785b87dc..
GPGPU-Sim PTX: Setting up arguments for 8 bytes starting at 0x7ffd785b87d0..
GPGPU-Sim PTX: Setting up arguments for 8 bytes starting at 0x7ffd785b87c8..
GPGPU-Sim PTX: Setting up arguments for 8 bytes starting at 0x7ffd785b87c0..
GPGPU-Sim PTX: Setting up arguments for 4 bytes starting at 0x7ffd785b87d8..

GPGPU-Sim PTX: cudaLaunch for 0x0x4123e6 (mode=performance simulation) on stream 1
GPGPU-Sim PTX: PDOM analysis already done for _Z25ethash_calculate_dag_itemjP8hash64_tmS0_j 
GPGPU-Sim PTX: pushing kernel '_Z25ethash_calculate_dag_itemjP8hash64_tmS0_j' to stream 1, gridDim= (4,1,1) blockDim = (256,1,1) 
GPGPU-Sim: synchronize waiting for inactive GPU simulation
GPGPU-Sim API: Stream Manager State
GPGPU-Sim API:    stream 1 has 1 operations
GPGPU-Sim API:       0 :  stream operation kernel
GPGPU-Sim uArch: Shader 32 bind to kernel 9 '_Z25ethash_calculate_dag_itemjP8hash64_tmS0_j'
GPGPU-Sim: Reconfigure L1 cache to 128KB
GPGPU-Sim uArch: Shader 33 bind to kernel 9 '_Z25ethash_calculate_dag_itemjP8hash64_tmS0_j'
GPGPU-Sim uArch: Shader 34 bind to kernel 9 '_Z25ethash_calculate_dag_itemjP8hash64_tmS0_j'
GPGPU-Sim uArch: Shader 35 bind to kernel 9 '_Z25ethash_calculate_dag_itemjP8hash64_tmS0_j'
