

        *** GPGPU-Sim Simulator Version 4.0.0  [build gpgpu-sim_git-commit-_modified_0.0] ***


GPGPU-Sim PTX: simulation mode 0 (can change with PTX_SIM_MODE_FUNC environment variable:
               1=functional simulation only, 0=detailed performance simulator)
GPGPU-Sim PTX: overriding embedded ptx with ptx file (PTX_SIM_USE_PTX_FILE is set)
GPGPU-Sim: Configuration options:

-save_embedded_ptx                      0 # saves ptx files embedded in binary as <n>.ptx
-keep                                   0 # keep intermediate files created by GPGPU-Sim when interfacing with external programs
-gpgpu_ptx_save_converted_ptxplus                    0 # Saved converted ptxplus to a file
-gpgpu_occupancy_sm_number                   70 # The SM number to pass to ptxas when getting register usage for computing GPU occupancy. This parameter is required in the config.
-ptx_opcode_latency_int      4,13,4,5,145,21 # Opcode latencies for integers <ADD,MAX,MUL,MAD,DIV,SHFL>Default 1,1,19,25,145,32
-ptx_opcode_latency_fp          4,13,4,5,39 # Opcode latencies for single precision floating points <ADD,MAX,MUL,MAD,DIV>Default 1,1,1,1,30
-ptx_opcode_latency_dp         8,19,8,8,330 # Opcode latencies for double precision floating points <ADD,MAX,MUL,MAD,DIV>Default 8,8,8,8,335
-ptx_opcode_latency_sfu                  100 # Opcode latencies for SFU instructionsDefault 8
-ptx_opcode_latency_tesnor                   64 # Opcode latencies for Tensor instructionsDefault 64
-ptx_opcode_initiation_int          2,2,2,2,8,4 # Opcode initiation intervals for integers <ADD,MAX,MUL,MAD,DIV,SHFL>Default 1,1,4,4,32,4
-ptx_opcode_initiation_fp            2,2,2,2,4 # Opcode initiation intervals for single precision floating points <ADD,MAX,MUL,MAD,DIV>Default 1,1,1,1,5
-ptx_opcode_initiation_dp          4,4,4,4,130 # Opcode initiation intervals for double precision floating points <ADD,MAX,MUL,MAD,DIV>Default 8,8,8,8,130
-ptx_opcode_initiation_sfu                    8 # Opcode initiation intervals for sfu instructionsDefault 8
-ptx_opcode_initiation_tensor                   64 # Opcode initiation intervals for tensor instructionsDefault 64
-cdp_latency         7200,8000,100,12000,1600 # CDP API latency <cudaStreamCreateWithFlags, cudaGetParameterBufferV2_init_perWarp, cudaGetParameterBufferV2_perKernel, cudaLaunchDeviceV2_init_perWarp, cudaLaunchDevicV2_perKernel>Default 7200,8000,100,12000,1600
-network_mode                           2 # Interconnection network mode
-inter_config_file                   mesh # Interconnection network config file
-icnt_in_buffer_limit                  512 # in_buffer_limit
-icnt_out_buffer_limit                  512 # out_buffer_limit
-icnt_subnets                           2 # subnets
-icnt_arbiter_algo                      1 # arbiter_algo
-icnt_verbose                           0 # inct_verbose
-icnt_grant_cycles                      1 # grant_cycles
-gpgpu_ptx_use_cuobjdump                    1 # Use cuobjdump to extract ptx and sass from binaries
-gpgpu_experimental_lib_support                    0 # Try to extract code from cuda libraries [Broken because of unknown cudaGetExportTable]
-checkpoint_option                      0 #  checkpointing flag (0 = no checkpoint)
-checkpoint_kernel                      1 #  checkpointing during execution of which kernel (1- 1st kernel)
-checkpoint_CTA                         0 #  checkpointing after # of CTA (< less than total CTA)
-resume_option                          0 #  resume flag (0 = no resume)
-resume_kernel                          0 #  Resume from which kernel (1= 1st kernel)
-resume_CTA                             0 #  resume from which CTA 
-checkpoint_CTA_t                       0 #  resume from which CTA 
-checkpoint_insn_Y                      0 #  resume from which CTA 
-gpgpu_ptx_convert_to_ptxplus                    0 # Convert SASS (native ISA) to ptxplus and run ptxplus
-gpgpu_ptx_force_max_capability                   70 # Force maximum compute capability
-gpgpu_ptx_inst_debug_to_file                    0 # Dump executed instructions' debug information to file
-gpgpu_ptx_inst_debug_file       inst_debug.txt # Executed instructions' debug output file
-gpgpu_ptx_inst_debug_thread_uid                    1 # Thread UID for executed instructions' debug output
-gpgpu_n_mem_for_l2wb_pcommit                   32 # number of memory modules (e.g. memory controllers) in gpu
-gpgpu_n_sub_partition_per_mchannel_for_l2wb_pcommit                    2 # number of memory subpartition in each memory module
-gpgpu_dl2_bsize_for_l2wb_pcommit                  128 # default 128 bytes
-gpgpu_simd_model                       1 # 1 = post-dominator
-gpgpu_shader_core_pipeline              2048:32 # shader core pipeline config, i.e., {<nthread>:<warpsize>}
-gpgpu_tex_cache:l1  N:4:128:256,L:R:m:N:L,T:512:8,128:2 # per-shader L1 texture cache  (READ-ONLY) config  {<nsets>:<bsize>:<assoc>,<rep>:<wr>:<alloc>:<wr_alloc>,<mshr>:<N>:<merge>,<mq>:<rf>}
-gpgpu_const_cache:l1 N:128:64:8,L:R:f:N:L,S:2:64,4 # per-shader L1 constant memory cache  (READ-ONLY) config  {<nsets>:<bsize>:<assoc>,<rep>:<wr>:<alloc>:<wr_alloc>,<mshr>:<N>:<merge>,<mq>} 
-gpgpu_cache:il1     N:64:128:16,L:R:f:N:L,S:2:48,4 # shader L1 instruction cache config  {<nsets>:<bsize>:<assoc>,<rep>:<wr>:<alloc>:<wr_alloc>,<mshr>:<N>:<merge>,<mq>} 
-gpgpu_cache:dl1     S:1:128:256,L:L:s:N:L,A:256:8,16:0,32 # per-shader L1 data cache config  {<nsets>:<bsize>:<assoc>,<rep>:<wr>:<alloc>:<wr_alloc>,<mshr>:<N>:<merge>,<mq> | none}
-gpgpu_l1_banks                         4 # The number of L1 cache banks
-gpgpu_l1_banks_byte_interleaving                   32 # l1 banks byte interleaving granularity
-gpgpu_l1_banks_hashing_function                    0 # l1 banks hashing function
-gpgpu_l1_latency                      20 # L1 Hit Latency
-gpgpu_smem_latency                    20 # smem Latency
-gpgpu_cache:dl1PrefL1                 none # per-shader L1 data cache config  {<nsets>:<bsize>:<assoc>,<rep>:<wr>:<alloc>:<wr_alloc>,<mshr>:<N>:<merge>,<mq> | none}
-gpgpu_cache:dl1PrefShared                 none # per-shader L1 data cache config  {<nsets>:<bsize>:<assoc>,<rep>:<wr>:<alloc>:<wr_alloc>,<mshr>:<N>:<merge>,<mq> | none}
-gpgpu_gmem_skip_L1D                    0 # global memory access skip L1D cache (implements -Xptxas -dlcm=cg, default=no skip)
-gpgpu_perfect_mem                      0 # enable perfect memory mode (no cache miss)
-n_regfile_gating_group                    4 # group of lanes that should be read/written together)
-gpgpu_clock_gated_reg_file                    0 # enable clock gated reg file for power calculations
-gpgpu_clock_gated_lanes                    0 # enable clock gated lanes for power calculations
-gpgpu_shader_registers                65536 # Number of registers per shader core. Limits number of concurrent CTAs. (default 8192)
-gpgpu_registers_per_block                65536 # Maximum number of registers per CTA. (default 8192)
-gpgpu_ignore_resources_limitation                    0 # gpgpu_ignore_resources_limitation (default 0)
-gpgpu_shader_cta                      32 # Maximum number of concurrent CTAs in shader (default 8)
-gpgpu_num_cta_barriers                   16 # Maximum number of named barriers per CTA (default 16)
-gpgpu_n_clusters                      80 # number of processing clusters
-gpgpu_n_cores_per_cluster                    1 # number of simd cores per cluster
-gpgpu_n_cluster_ejection_buffer_size                   32 # number of packets in ejection buffer
-gpgpu_n_ldst_response_buffer_size                    2 # number of response packets in ld/st unit ejection buffer
-gpgpu_shmem_per_block                65536 # Size of shared memory per thread block or CTA (default 48kB)
-gpgpu_shmem_size                   98304 # Size of shared memory per shader core (default 16kB)
-gpgpu_adaptive_cache_config            536870913 # adaptive_cache_config
-gpgpu_shmem_sizeDefault                98304 # Size of shared memory per shader core (default 16kB)
-gpgpu_shmem_size_PrefL1                16384 # Size of shared memory per shader core (default 16kB)
-gpgpu_shmem_size_PrefShared                16384 # Size of shared memory per shader core (default 16kB)
-gpgpu_shmem_num_banks                   32 # Number of banks in the shared memory in each shader core (default 16)
-gpgpu_shmem_limited_broadcast                    0 # Limit shared memory to do one broadcast per cycle (default on)
-gpgpu_shmem_warp_parts                    1 # Number of portions a warp is divided into for shared memory bank conflict check 
-gpgpu_mem_unit_ports                    1 # The number of memory transactions allowed per core cycle
-gpgpu_shmem_warp_parts                    1 # Number of portions a warp is divided into for shared memory bank conflict check 
-gpgpu_warpdistro_shader                   -1 # Specify which shader core to collect the warp size distribution from
-gpgpu_warp_issue_shader                    0 # Specify which shader core to collect the warp issue distribution from
-gpgpu_local_mem_map                    1 # Mapping from local memory space address to simulated GPU physical address space (default = enabled)
-gpgpu_num_reg_banks                   16 # Number of register banks (default = 8)
-gpgpu_reg_bank_use_warp_id                    0 # Use warp ID in mapping registers to banks (default = off)
-gpgpu_sub_core_model                    1 # Sub Core Volta/Pascal model (default = off)
-gpgpu_enable_specialized_operand_collector                    0 # enable_specialized_operand_collector
-gpgpu_operand_collector_num_units_sp                    4 # number of collector units (default = 4)
-gpgpu_operand_collector_num_units_dp                    0 # number of collector units (default = 0)
-gpgpu_operand_collector_num_units_sfu                    4 # number of collector units (default = 4)
-gpgpu_operand_collector_num_units_int                    0 # number of collector units (default = 0)
-gpgpu_operand_collector_num_units_tensor_core                    4 # number of collector units (default = 4)
-gpgpu_operand_collector_num_units_mem                    2 # number of collector units (default = 2)
-gpgpu_operand_collector_num_units_gen                    8 # number of collector units (default = 0)
-gpgpu_operand_collector_num_in_ports_sp                    1 # number of collector unit in ports (default = 1)
-gpgpu_operand_collector_num_in_ports_dp                    0 # number of collector unit in ports (default = 0)
-gpgpu_operand_collector_num_in_ports_sfu                    1 # number of collector unit in ports (default = 1)
-gpgpu_operand_collector_num_in_ports_int                    0 # number of collector unit in ports (default = 0)
-gpgpu_operand_collector_num_in_ports_tensor_core                    1 # number of collector unit in ports (default = 1)
-gpgpu_operand_collector_num_in_ports_mem                    1 # number of collector unit in ports (default = 1)
-gpgpu_operand_collector_num_in_ports_gen                    8 # number of collector unit in ports (default = 0)
-gpgpu_operand_collector_num_out_ports_sp                    1 # number of collector unit in ports (default = 1)
-gpgpu_operand_collector_num_out_ports_dp                    0 # number of collector unit in ports (default = 0)
-gpgpu_operand_collector_num_out_ports_sfu                    1 # number of collector unit in ports (default = 1)
-gpgpu_operand_collector_num_out_ports_int                    0 # number of collector unit in ports (default = 0)
-gpgpu_operand_collector_num_out_ports_tensor_core                    1 # number of collector unit in ports (default = 1)
-gpgpu_operand_collector_num_out_ports_mem                    1 # number of collector unit in ports (default = 1)
-gpgpu_operand_collector_num_out_ports_gen                    8 # number of collector unit in ports (default = 0)
-gpgpu_coalesce_arch                   60 # Coalescing arch (GT200 = 13, Fermi = 20)
-gpgpu_num_sched_per_core                    4 # Number of warp schedulers per core
-gpgpu_max_insn_issue_per_warp                    1 # Max number of instructions that can be issued per warp in one cycle by scheduler (either 1 or 2)
-gpgpu_dual_issue_diff_exec_units                    1 # should dual issue use two different execution unit resources (Default = 1)
-gpgpu_simt_core_sim_order                    1 # Select the simulation order of cores in a cluster (0=Fix, 1=Round-Robin)
-gpgpu_pipeline_widths 4,4,4,4,4,4,4,4,4,4,8,4,4 # Pipeline widths ID_OC_SP,ID_OC_DP,ID_OC_INT,ID_OC_SFU,ID_OC_MEM,OC_EX_SP,OC_EX_DP,OC_EX_INT,OC_EX_SFU,OC_EX_MEM,EX_WB,ID_OC_TENSOR_CORE,OC_EX_TENSOR_CORE
-gpgpu_tensor_core_avail                    1 # Tensor Core Available (default=0)
-gpgpu_num_sp_units                     4 # Number of SP units (default=1)
-gpgpu_num_dp_units                     4 # Number of DP units (default=0)
-gpgpu_num_int_units                    4 # Number of INT units (default=0)
-gpgpu_num_sfu_units                    4 # Number of SF units (default=1)
-gpgpu_num_tensor_core_units                    4 # Number of tensor_core units (default=1)
-gpgpu_num_mem_units                    1 # Number if ldst units (default=1) WARNING: not hooked up to anything
-gpgpu_scheduler                      gto # Scheduler configuration: < lrr | gto | two_level_active > If two_level_active:<num_active_warps>:<inner_prioritization>:<outer_prioritization>For complete list of prioritization values see shader.h enum scheduler_prioritization_typeDefault: gto
-gpgpu_concurrent_kernel_sm                    0 # Support concurrent kernels on a SM (default = disabled)
-gpgpu_perfect_inst_const_cache                    1 # perfect inst and const cache mode, so all inst and const hits in the cache(default = disabled)
-gpgpu_inst_fetch_throughput                    4 # the number of fetched intruction per warp each cycle
-gpgpu_reg_file_port_throughput                    2 # the number ports of the register file
-specialized_unit_1         0,4,4,4,4,BRA # specialized unit config {<enabled>,<num_units>:<latency>:<initiation>,<ID_OC_SPEC>:<OC_EX_SPEC>,<NAME>}
-specialized_unit_2         0,4,4,4,4,BRA # specialized unit config {<enabled>,<num_units>:<latency>:<initiation>,<ID_OC_SPEC>:<OC_EX_SPEC>,<NAME>}
-specialized_unit_3         0,4,4,4,4,BRA # specialized unit config {<enabled>,<num_units>:<latency>:<initiation>,<ID_OC_SPEC>:<OC_EX_SPEC>,<NAME>}
-specialized_unit_4         0,4,4,4,4,BRA # specialized unit config {<enabled>,<num_units>:<latency>:<initiation>,<ID_OC_SPEC>:<OC_EX_SPEC>,<NAME>}
-specialized_unit_5         0,4,4,4,4,BRA # specialized unit config {<enabled>,<num_units>:<latency>:<initiation>,<ID_OC_SPEC>:<OC_EX_SPEC>,<NAME>}
-specialized_unit_6         0,4,4,4,4,BRA # specialized unit config {<enabled>,<num_units>:<latency>:<initiation>,<ID_OC_SPEC>:<OC_EX_SPEC>,<NAME>}
-specialized_unit_7         0,4,4,4,4,BRA # specialized unit config {<enabled>,<num_units>:<latency>:<initiation>,<ID_OC_SPEC>:<OC_EX_SPEC>,<NAME>}
-specialized_unit_8         0,4,4,4,4,BRA # specialized unit config {<enabled>,<num_units>:<latency>:<initiation>,<ID_OC_SPEC>:<OC_EX_SPEC>,<NAME>}
-gpgpu_perf_sim_memcpy                    1 # Fill the L2 cache on memcpy
-gpgpu_simple_dram_model                    0 # simple_dram_model with fixed latency and BW
-gpgpu_dram_scheduler                    1 # 0 = fifo, 1 = FR-FCFS (defaul)
-gpgpu_dram_partition_queues          64:64:64:64 # i2$:$2d:d2$:$2i
-l2_ideal                               0 # Use a ideal L2 cache that always hit
-gpgpu_cache:dl2     S:32:128:24,L:B:m:L:P,A:192:4,32:0,32 # unified banked L2 data cache config  {<nsets>:<bsize>:<assoc>,<rep>:<wr>:<alloc>:<wr_alloc>,<mshr>:<N>:<merge>,<mq>}
-gpgpu_cache:dl2_texture_only                    0 # L2 cache used for texture only
-gpgpu_n_mem                           32 # number of memory modules (e.g. memory controllers) in gpu
-gpgpu_n_sub_partition_per_mchannel                    2 # number of memory subpartition in each memory module
-gpgpu_n_mem_per_ctrlr                    1 # number of memory chips per memory controller
-gpgpu_memlatency_stat                   14 # track and display latency statistics 0x2 enables MC, 0x4 enables queue logs
-gpgpu_frfcfs_dram_sched_queue_size                   64 # 0 = unlimited (default); # entries per chip
-gpgpu_dram_return_queue_size                  192 # 0 = unlimited (default); # entries per chip
-gpgpu_dram_buswidth                   16 # default = 4 bytes (8 bytes per cycle at DDR)
-gpgpu_dram_burst_length                    2 # Burst length of each DRAM request (default = 4 data bus cycle)
-dram_data_command_freq_ratio                    2 # Frequency ratio between DRAM data bus and command bus (default = 2 times, i.e. DDR)
-gpgpu_dram_timing_opt nbk=16:CCD=1:RRD=3:RCD=12:RAS=28:RP=12:RC=40: CL=12:WL=2:CDLR=3:WR=10:nbkgrp=4:CCDL=2:RTPL=3 # DRAM timing parameters = {nbk:tCCD:tRRD:tRCD:tRAS:tRP:tRC:CL:WL:tCDLR:tWR:nbkgrp:tCCDL:tRTPL}
-gpgpu_l2_rop_latency                  160 # ROP queue latency (default 85)
-dram_latency                         200 # DRAM latency (default 30)
-dram_write_latency                   600 # DRAM write latency (default 100)
-dram_dual_bus_interface                    1 # dual_bus_interface (default = 0) 
-dram_bnk_indexing_policy                    0 # dram_bnk_indexing_policy (0 = normal indexing, 1 = Xoring with the higher bits) (Default = 0)
-dram_bnkgrp_indexing_policy                    1 # dram_bnkgrp_indexing_policy (0 = take higher bits, 1 = take lower bits) (Default = 0)
-dram_seperate_write_queue_enable                    0 # Seperate_Write_Queue_Enable
-dram_write_queue_size             32:28:16 # Write_Queue_Size
-dram_elimnate_rw_turnaround                    0 # elimnate_rw_turnaround i.e set tWTR and tRTW = 0
-icnt_flit_size                        40 # icnt_flit_size
-gpgpu_mem_addr_mapping dramid@8;00000000.00000000.00000000.00000000.0000RRRR.RRRRRRRR.RBBBCCCB.CCCSSSSS # mapping memory address to dram model {dramid@<start bit>;<memory address map>}
-gpgpu_mem_addr_test                    0 # run sweep test to check address mapping for aliased address
-gpgpu_mem_address_mask                    1 # 0 = old addressing mask, 1 = new addressing mask, 2 = new add. mask + flipped bank sel and chip sel bits
-gpgpu_memory_partition_indexing                    0 # 0 = no indexing, 1 = bitwise xoring, 2 = IPoly, 3 = custom indexing
-gpuwattch_xml_file         gpuwattch.xml # GPUWattch XML file
-power_simulation_enabled                    0 # Turn on power simulator (1=On, 0=Off)
-power_per_cycle_dump                    0 # Dump detailed power output each cycle
-power_trace_enabled                    0 # produce a file for the power trace (1=On, 0=Off)
-power_trace_zlevel                     6 # Compression level of the power trace output log (0=no comp, 9=highest)
-steady_power_levels_enabled                    0 # produce a file for the steady power levels (1=On, 0=Off)
-steady_state_definition                  8:4 # allowed deviation:number of samples
-gpgpu_max_cycle                        0 # terminates gpu simulation early (0 = no limit)
-gpgpu_max_insn                         0 # terminates gpu simulation early (0 = no limit)
-gpgpu_max_cta                          0 # terminates gpu simulation early (0 = no limit)
-gpgpu_max_completed_cta                    0 # terminates gpu simulation early (0 = no limit)
-gpgpu_runtime_stat                   500 # display runtime statistics such as dram utilization {<freq>:<flag>}
-liveness_message_freq                    1 # Minimum number of seconds between simulation liveness messages (0 = always print)
-gpgpu_compute_capability_major                    7 # Major compute capability version number
-gpgpu_compute_capability_minor                    0 # Minor compute capability version number
-gpgpu_flush_l1_cache                    1 # Flush L1 cache at the end of each kernel call
-gpgpu_flush_l2_cache                    0 # Flush L2 cache at the end of each kernel call
-gpgpu_deadlock_detect                    1 # Stop the simulation at deadlock (1=on (default), 0=off)
-gpgpu_ptx_instruction_classification                    0 # if enabled will classify ptx instruction types per kernel (Max 255 kernels now)
-gpgpu_ptx_sim_mode                     0 # Select between Performance (default) or Functional simulation (1)
-gpgpu_clock_domains 1132.0:1132.0:1132.0:850.0 # Clock Domain Frequencies in MhZ {<Core Clock>:<ICNT Clock>:<L2 Clock>:<DRAM Clock>}
-gpgpu_max_concurrent_kernel                    8 # maximum kernels that can run concurrently on GPU
-gpgpu_cflog_interval                    0 # Interval between each snapshot in control flow logger
-visualizer_enabled               1d1fd91f79a04be419695e7e30b34791  /home/pli11/Desktop/re_test/megakv/insert/run
Extracting PTX file and ptxas options    1: run.1.sm_70.ptx -arch=sm_70
      0 # Turn on visualizer output (1=On, 0=Off)
-visualizer_outputfile                 NULL # Specifies the output log file for visualizer
-visualizer_zlevel                      6 # Compression level of the visualizer output log (0=no comp, 9=highest)
-gpgpu_stack_size_limit                 1024 # GPU thread stack size
-gpgpu_heap_size_limit              8388608 # GPU malloc heap size 
-gpgpu_runtime_sync_depth_limit                    2 # GPU device runtime synchronize depth
-gpgpu_runtime_pending_launch_count_limit                 2048 # GPU device runtime pending launch count
-trace_enabled                          0 # Turn on traces
-trace_components                    none # comma seperated list of traces to enable. Complete list found in trace_streams.tup. Default none
-trace_sampling_core                    0 # The core which is printed using CORE_DPRINTF. Default 0
-trace_sampling_memory_partition                   -1 # The memory partition which is printed using MEMPART_DPRINTF. Default -1 (i.e. all)
-enable_ptx_file_line_stats                    1 # Turn on PTX source line statistic profiling. (1 = On)
-ptx_line_stats_filename gpgpu_inst_stats.txt # Output file for PTX source line statistics.
-gpgpu_kernel_launch_latency                 5000 # Kernel launch latency in cycles. Default: 0
-gpgpu_cdp_enabled                      0 # Turn on CDP
-gpgpu_TB_launch_latency                    0 # thread block launch latency in cycles. Default: 0
DRAM Timing Options:
nbk                                    16 # number of banks
CCD                                     1 # column to column delay
RRD                                     3 # minimal delay between activation of rows in different banks
RCD                                    12 # row to column delay
RAS                                    28 # time needed to activate row
RP                                     12 # time needed to precharge (deactivate) row
RC                                     40 # row cycle time
CDLR                                    3 # switching from write to read (changes tWTR)
WR                                     10 # last data-in to row precharge
CL                                     12 # CAS latency
WL                                      2 # Write latency
nbkgrp                                  4 # number of bank groups
CCDL                                    2 # column to column delay between accesses to different bank groups
RTPL                                    3 # read to precharge delay between accesses to different bank groups
Total number of memory sub partition = 64
addr_dec_mask[CHIP]  = 0000000000001f00 	high:13 low:8
addr_dec_mask[BK]    = 00000000000e2000 	high:20 low:13
addr_dec_mask[ROW]   = 00000001fff00000 	high:33 low:20
addr_dec_mask[COL]   = 000000000001c0ff 	high:17 low:0
addr_dec_mask[BURST] = 000000000000001f 	high:5 low:0
sub_partition_id_mask = 0000000000002000
GPGPU-Sim uArch: clock freqs: 1132000000.000000:1132000000.000000:1132000000.000000:850000000.000000
GPGPU-Sim uArch: clock periods: 0.00000000088339222615:0.00000000088339222615:0.00000000088339222615:0.00000000117647058824
*** Initializing Memory Statistics ***
GPGPU-Sim uArch: performance model initialization complete.
self exe links to: /home/pli11/Desktop/re_test/megakv/insert/run
self exe links to: /home/pli11/Desktop/re_test/megakv/insert/run
10.1
GPGPU-Sim PTX: __cudaRegisterFatBinary, fat_cubin_handle = 1, filename=default
self exe links to: /home/pli11/Desktop/re_test/megakv/insert/run
Running md5sum using "md5sum /home/pli11/Desktop/re_test/megakv/insert/run "
self exe links to: /home/pli11/Desktop/re_test/megakv/insert/run
Extracting specific PTX file named run.1.sm_70.ptx 
GPGPU-Sim PTX: __cudaRegisterFunction _Z18hash_insert_cuckooP8bucket_sPP7ielem_sPi : hostFun 0x0x4030de, fat_cubin_handle = 1
GPGPU-Sim PTX: Parsing run.1.sm_70.ptx
GPGPU-Sim PTX: allocating stack frame region for .param "func_retval0" from 0x0 to 0x4
GPGPU-Sim PTX: allocating stack frame region for .param "vprintf_param_0" from 0x4 to 0xc
GPGPU-Sim PTX: allocating stack frame region for .param "vprintf_param_1" from 0xc to 0x14
GPGPU-Sim PTX: allocating global region for "$str" from 0x100 to 0x114 (global memory space)
GPGPU-Sim PTX: allocating stack frame region for .param "param0" from 0x0 to 0x8
GPGPU-Sim PTX: allocating stack frame region for .param "param1" from 0x8 to 0x10
GPGPU-Sim PTX: allocating stack frame region for .param "retval0" from 0x10 to 0x14
GPGPU-Sim PTX: instruction assembly for function '_Z23hash_insert_cuckoo_nvmbP8bucket_sPP7ielem_sPi'...   done.
GPGPU-Sim PTX: allocating stack frame region for .param "param0" from 0x0 to 0x8
GPGPU-Sim PTX: allocating stack frame region for .param "param1" from 0x8 to 0x10
GPGPU-Sim PTX: allocating stack frame region for .param "retval0" from 0x10 to 0x14
GPGPU-Sim PTX: instruction assembly for function '_Z23hash_insert_cuckoo_nvmoP8bucket_sPP7ielem_sPi'...   done.
GPGPU-Sim PTX: allocating stack frame region for .param "param0" from 0x0 to 0x8
GPGPU-Sim PTX: allocating stack frame region for .param "param1" from 0x8 to 0x10
GPGPU-Sim PTX: allocating stack frame region for .param "retval0" from 0x10 to 0x14
GPGPU-Sim PTX: instruction assembly for function '_Z23hash_insert_cuckoo_nvmuP8bucket_sPP7ielem_sPi'...   done.
GPGPU-Sim PTX: instruction assembly for function '_Z11kernel_l2wbv'...   done.
GPGPU-Sim PTX: instruction assembly for function '_Z15kernel_l2wb_pctv'...   done.
GPGPU-Sim PTX: allocating stack frame region for .param "param0" from 0x0 to 0x8
GPGPU-Sim PTX: allocating stack frame region for .param "param1" from 0x8 to 0x10
GPGPU-Sim PTX: allocating stack frame region for .param "retval0" from 0x10 to 0x14
GPGPU-Sim PTX: instruction assembly for function '_Z18hash_insert_cuckooP8bucket_sPP7ielem_sPi'...   done.
GPGPU-Sim PTX: finished parsing EMBEDDED .ptx file run.1.sm_70.ptx
GPGPU-Sim PTX: loading globals with explicit initializers... 
GPGPU-Sim PTX:     initializing '$str' ...  wrote 20 bytes
GPGPU-Sim PTX: finished loading globals (20 bytes total).
GPGPU-Sim PTX: loading constants with explicit initializers...  done.
GPGPU-Sim PTX: Loading PTXInfo from run.1.sm_70.ptx
GPGPU-Sim PTX: Kernel '_Z18hash_insert_cuckooP8bucket_sPP7ielem_sPi' : regs=32, lmem=0, smem=0, cmem=376
GPGPU-Sim PTX: Kernel '_Z15kernel_l2wb_pctv' : regs=8, lmem=0, smem=0, cmem=352
GPGPU-Sim PTX: Kernel '_Z11kernel_l2wbv' : regs=8, lmem=0, smem=0, cmem=352
GPGPU-Sim PTX: Kernel '_Z23hash_insert_cuckoo_nvmuP8bucket_sPP7ielem_sPi' : regs=35, lmem=0, smem=0, cmem=376
GPGPU-Sim PTX: Kernel '_Z23hash_insert_cuckoo_nvmoP8bucket_sPP7ielem_sPi' : regs=34, lmem=0, smem=0, cmem=376
GPGPU-Sim PTX: Kernel '_Z23hash_insert_cuckoo_nvmbP8bucket_sPP7ielem_sPi' : regs=33, lmem=0, smem=0, cmem=376
GPGPU-Sim PTX: __cudaRegisterFunction _Z15kernel_l2wb_pctv : hostFun 0x0x402fa2, fat_cubin_handle = 1
GPGPU-Sim PTX: __cudaRegisterFunction _Z11kernel_l2wbv : hostFun 0x0x402ea8, fat_cubin_handle = 1
GPGPU-Sim PTX: __cudaRegisterFunction _Z23hash_insert_cuckoo_nvmuP8bucket_sPP7ielem_sPi : hostFun 0x0x402d8c, fat_cubin_handle = 1
GPGPU-Sim PTX: __cudaRegisterFunction _Z23hash_insert_cuckoo_nvmoP8bucket_sPP7ielem_sPi : hostFun 0x0x402c2e, fat_cubin_handle = 1
GPGPU-Sim PTX: __cudaRegisterFunction _Z23hash_insert_cuckoo_nvmbP8bucket_sPP7ielem_sPi : hostFun 0x0x402ad0, fat_cubin_handle = 1
GPGPU-Sim PTX: cudaStreamCreate
GPGPU-Sim: synchronize waiting for inactive GPU simulation
GPGPU-Sim API: Stream Manager State
GPGPU-Sim: detected inactive GPU simulation thread
GPGPU-Sim: synchronize waiting for inactive GPU simulation
GPGPU-Sim API: Stream Manager State
GPGPU-Sim API:    stream 1 has 2 operations
GPGPU-Sim API:       0 :  stream operation memcpy host-to-device
GPGPU-Sim API:       1 :  stream operation memcpy host-to-device
GPGPU-Sim: detected inactive GPU simulation thread
GPGPU-Sim PTX: Setting up arguments for 8 bytes starting at 0x7ffec1d15888..
GPGPU-Sim PTX: Setting up arguments for 8 bytes starting at 0x7ffec1d15880..
GPGPU-Sim PTX: Setting up arguments for 8 bytes starting at 0x7ffec1d15878..

GPGPU-Sim PTX: cudaLaunch for 0x0x402ad0 (mode=performance simulation) on stream 1
GPGPU-Sim PTX: finding reconvergence points for '_Z23hash_insert_cuckoo_nvmbP8bucket_sPP7ielem_sPi'...
GPGPU-Sim PTX: Finding dominators for '_Z23hash_insert_cuckoo_nvmbP8bucket_sPP7ielem_sPi'...
GPGPU-Sim PTX: Finding immediate dominators for '_Z23hash_insert_cuckoo_nvmbP8bucket_sPP7ielem_sPi'...
GPGPU-Sim PTX: Finding postdominators for '_Z23hash_insert_cuckoo_nvmbP8bucket_sPP7ielem_sPi'...
GPGPU-Sim PTX: Finding immediate postdominators for '_Z23hash_insert_cuckoo_nvmbP8bucket_sPP7ielem_sPi'...
GPGPU-Sim PTX: pre-decoding instructions for '_Z23hash_insert_cuckoo_nvmbP8bucket_sPP7ielem_sPi'...
GPGPU-Sim PTX: reconvergence points for _Z23hash_insert_cuckoo_nvmbP8bucket_sPP7ielem_sPi...
GPGPU-Sim PTX:  1 (potential) branch divergence @  PC=0x078 (run.1.sm_70.ptx:48) @%p2 bra BB0_40;
GPGPU-Sim PTX:    immediate post dominator      @  PC=0x7d0 (run.1.sm_70.ptx:398) ret;
GPGPU-Sim PTX:  2 (potential) branch divergence @  PC=0x0b8 (run.1.sm_70.ptx:57) bra.uni BB0_2;
GPGPU-Sim PTX:    immediate post dominator      @  PC=0x110 (run.1.sm_70.ptx:77) cvt.s64.s32%rd5, %r130;
GPGPU-Sim PTX:  3 (potential) branch divergence @  PC=0x0e0 (run.1.sm_70.ptx:64) @%p30 bra BB0_39;
GPGPU-Sim PTX:    immediate post dominator      @  PC=0x7b0 (run.1.sm_70.ptx:392) cvt.u32.u64%r128, %rd5;
GPGPU-Sim PTX:  4 (potential) branch divergence @  PC=0x108 (run.1.sm_70.ptx:74) bra.uni BB0_39;
GPGPU-Sim PTX:    immediate post dominator      @  PC=0x7b0 (run.1.sm_70.ptx:392) cvt.u32.u64%r128, %rd5;
GPGPU-Sim PTX:  5 (potential) branch divergence @  PC=0x148 (run.1.sm_70.ptx:84) @%p3 bra BB0_38;
GPGPU-Sim PTX:    immediate post dominator      @  PC=0x7b0 (run.1.sm_70.ptx:392) cvt.u32.u64%r128, %rd5;
GPGPU-Sim PTX:  6 (potential) branch divergence @  PC=0x150 (run.1.sm_70.ptx:85) bra.uni BB0_3;
GPGPU-Sim PTX:    immediate post dominator      @  PC=0x198 (run.1.sm_70.ptx:113) ld.u32 %r12, [%rd6+4];
GPGPU-Sim PTX:  7 (potential) branch divergence @  PC=0x190 (run.1.sm_70.ptx:110) bra.uni BB0_39;
GPGPU-Sim PTX:    immediate post dominator      @  PC=0x7b0 (run.1.sm_70.ptx:392) cvt.u32.u64%r128, %rd5;
GPGPU-Sim PTX:  8 (potential) branch divergence @  PC=0x208 (run.1.sm_70.ptx:127) @%p6 bra BB0_6;
GPGPU-Sim PTX:    immediate post dominator      @  PC=0x7b0 (run.1.sm_70.ptx:392) cvt.u32.u64%r128, %rd5;
GPGPU-Sim PTX:  9 (potential) branch divergence @  PC=0x210 (run.1.sm_70.ptx:128) bra.uni BB0_4;
GPGPU-Sim PTX:    immediate post dominator      @  PC=0x380 (run.1.sm_70.ptx:195) neg.s32 %r59, %r13;
GPGPU-Sim PTX: 10 (potential) branch divergence @  PC=0x2a8 (run.1.sm_70.ptx:151) @%p10 bra BB0_10;
GPGPU-Sim PTX:    immediate post dominator      @  PC=0x308 (run.1.sm_70.ptx:171) bar.sync 0;
GPGPU-Sim PTX: 11 (potential) branch divergence @  PC=0x2e8 (run.1.sm_70.ptx:160) @%p11 bra BB0_10;
GPGPU-Sim PTX:    immediate post dominator      @  PC=0x308 (run.1.sm_70.ptx:171) bar.sync 0;
GPGPU-Sim PTX: 12 (potential) branch divergence @  PC=0x310 (run.1.sm_70.ptx:172) @%p10 bra BB0_14;
GPGPU-Sim PTX:    immediate post dominator      @  PC=0x7b0 (run.1.sm_70.ptx:392) cvt.u32.u64%r128, %rd5;
GPGPU-Sim PTX: 13 (potential) branch divergence @  PC=0x340 (run.1.sm_70.ptx:179) @%p13 bra BB0_7;
GPGPU-Sim PTX:    immediate post dominator      @  PC=0x7b0 (run.1.sm_70.ptx:392) cvt.u32.u64%r128, %rd5;
GPGPU-Sim PTX: 14 (potential) branch divergence @  PC=0x350 (run.1.sm_70.ptx:182) @%p14 bra BB0_39;
GPGPU-Sim PTX:    immediate post dominator      @  PC=0x7b0 (run.1.sm_70.ptx:392) cvt.u32.u64%r128, %rd5;
GPGPU-Sim PTX: 15 (potential) branch divergence @  PC=0x378 (run.1.sm_70.ptx:192) bra.uni BB0_39;
GPGPU-Sim PTX:    immediate post dominator      @  PC=0x7b0 (run.1.sm_70.ptx:392) cvt.u32.u64%r128, %rd5;
GPGPU-Sim PTX: 16 (potential) branch divergence @  PC=0x3b8 (run.1.sm_70.ptx:202) @%p7 bra BB0_39;
GPGPU-Sim PTX:    immediate post dominator      @  PC=0x7b0 (run.1.sm_70.ptx:392) cvt.u32.u64%r128, %rd5;
GPGPU-Sim PTX: 17 (potential) branch divergence @  PC=0x3f8 (run.1.sm_70.ptx:215) bra.uni BB0_39;
GPGPU-Sim PTX:    immediate post dominator      @  PC=0x7b0 (run.1.sm_70.ptx:392) cvt.u32.u64%r128, %rd5;
GPGPU-Sim PTX: 18 (potential) branch divergence @  PC=0x478 (run.1.sm_70.ptx:233) @%p17 bra BB0_36;
GPGPU-Sim PTX:    immediate post dominator      @  PC=0x7b0 (run.1.sm_70.ptx:392) cvt.u32.u64%r128, %rd5;
GPGPU-Sim PTX: 19 (potential) branch divergence @  PC=0x4e8 (run.1.sm_70.ptx:251) @%p20 bra BB0_18;
GPGPU-Sim PTX:    immediate post dominator      @  PC=0x578 (run.1.sm_70.ptx:276) bar.sync 0;
GPGPU-Sim PTX: 20 (potential) branch divergence @  PC=0x4f0 (run.1.sm_70.ptx:252) bra.uni BB0_17;
GPGPU-Sim PTX:    immediate post dominator      @  PC=0x548 (run.1.sm_70.ptx:268) neg.s32 %r100, %r30;
GPGPU-Sim PTX: 21 (potential) branch divergence @  PC=0x510 (run.1.sm_70.ptx:258) @%p21 bra BB0_20;
GPGPU-Sim PTX:    immediate post dominator      @  PC=0x578 (run.1.sm_70.ptx:276) bar.sync 0;
GPGPU-Sim PTX: 22 (potential) branch divergence @  PC=0x540 (run.1.sm_70.ptx:265) bra.uni BB0_20;
GPGPU-Sim PTX:    immediate post dominator      @  PC=0x578 (run.1.sm_70.ptx:276) bar.sync 0;
GPGPU-Sim PTX: 23 (potential) branch divergence @  PC=0x580 (run.1.sm_70.ptx:277) @%p20 bra BB0_23;
GPGPU-Sim PTX:    immediate post dominator      @  PC=0x5d8 (run.1.sm_70.ptx:304) bar.sync 0;
GPGPU-Sim PTX: 24 (potential) branch divergence @  PC=0x588 (run.1.sm_70.ptx:278) bra.uni BB0_21;
GPGPU-Sim PTX:    immediate post dominator      @  PC=0x5b8 (run.1.sm_70.ptx:293) setp.ne.s32%p23, %r1, %r148;
GPGPU-Sim PTX: 25 (potential) branch divergence @  PC=0x598 (run.1.sm_70.ptx:282) @%p24 bra BB0_25;
GPGPU-Sim PTX:    immediate post dominator      @  PC=0x5d8 (run.1.sm_70.ptx:304) bar.sync 0;
GPGPU-Sim PTX: 26 (potential) branch divergence @  PC=0x5b0 (run.1.sm_70.ptx:290) bra.uni BB0_25;
GPGPU-Sim PTX:    immediate post dominator      @  PC=0x5d8 (run.1.sm_70.ptx:304) bar.sync 0;
GPGPU-Sim PTX: 27 (potential) branch divergence @  PC=0x5c0 (run.1.sm_70.ptx:294) @%p23 bra BB0_25;
GPGPU-Sim PTX:    immediate post dominator      @  PC=0x5d8 (run.1.sm_70.ptx:304) bar.sync 0;
GPGPU-Sim PTX: 28 (potential) branch divergence @  PC=0x5f8 (run.1.sm_70.ptx:308) @%p20 bra BB0_29;
GPGPU-Sim PTX:    immediate post dominator      @  PC=0x7b0 (run.1.sm_70.ptx:392) cvt.u32.u64%r128, %rd5;
GPGPU-Sim PTX: 29 (potential) branch divergence @  PC=0x610 (run.1.sm_70.ptx:312) @%p25 bra BB0_16;
GPGPU-Sim PTX:    immediate post dominator      @  PC=0x7b0 (run.1.sm_70.ptx:392) cvt.u32.u64%r128, %rd5;
GPGPU-Sim PTX: 30 (potential) branch divergence @  PC=0x618 (run.1.sm_70.ptx:313) bra.uni BB0_27;
GPGPU-Sim PTX:    immediate post dominator      @  PC=0x780 (run.1.sm_70.ptx:379) setp.ne.s32%p26, %r1, %r148;
GPGPU-Sim PTX: 31 (potential) branch divergence @  PC=0x628 (run.1.sm_70.ptx:317) @%p27 bra BB0_32;
GPGPU-Sim PTX:    immediate post dominator      @  PC=0x7b0 (run.1.sm_70.ptx:392) cvt.u32.u64%r128, %rd5;
GPGPU-Sim PTX: 32 (potential) branch divergence @  PC=0x630 (run.1.sm_70.ptx:318) bra.uni BB0_30;
GPGPU-Sim PTX:    immediate post dominator      @  PC=0x0c0 (run.1.sm_70.ptx:60) setp.ne.s32%p28, %r1, %r148;
GPGPU-Sim PTX: 33 (potential) branch divergence @  PC=0x648 (run.1.sm_70.ptx:323) @%p31 bra BB0_39;
GPGPU-Sim PTX:    immediate post dominator      @  PC=0x7b0 (run.1.sm_70.ptx:392) cvt.u32.u64%r128, %rd5;
GPGPU-Sim PTX: 34 (potential) branch divergence @  PC=0x658 (run.1.sm_70.ptx:326) @%p32 bra BB0_35;
GPGPU-Sim PTX:    immediate post dominator      @  PC=0x678 (run.1.sm_70.ptx:337) xor.b32 %r114, %r36, %r12;
GPGPU-Sim PTX: 35 (potential) branch divergence @  PC=0x6f8 (run.1.sm_70.ptx:353) @%p35 bra BB0_15;
GPGPU-Sim PTX:    immediate post dominator      @  PC=0x7b0 (run.1.sm_70.ptx:392) cvt.u32.u64%r128, %rd5;
GPGPU-Sim PTX: 36 (potential) branch divergence @  PC=0x738 (run.1.sm_70.ptx:363) @%p36 bra BB0_39;
GPGPU-Sim PTX:    immediate post dominator      @  PC=0x7b0 (run.1.sm_70.ptx:392) cvt.u32.u64%r128, %rd5;
GPGPU-Sim PTX: 37 (potential) branch divergence @  PC=0x778 (run.1.sm_70.ptx:376) bra.uni BB0_39;
GPGPU-Sim PTX:    immediate post dominator      @  PC=0x7b0 (run.1.sm_70.ptx:392) cvt.u32.u64%r128, %rd5;
GPGPU-Sim PTX: 38 (potential) branch divergence @  PC=0x788 (run.1.sm_70.ptx:380) @%p26 bra BB0_39;
GPGPU-Sim PTX:    immediate post dominator      @  PC=0x7b0 (run.1.sm_70.ptx:392) cvt.u32.u64%r128, %rd5;
GPGPU-Sim PTX: 39 (potential) branch divergence @  PC=0x7c8 (run.1.sm_70.ptx:395) @%p37 bra BB0_2;
GPGPU-Sim PTX:    immediate post dominator      @  PC=0x7d0 (run.1.sm_70.ptx:398) ret;
GPGPU-Sim PTX: ... end of reconvergence points for _Z23hash_insert_cuckoo_nvmbP8bucket_sPP7ielem_sPi
GPGPU-Sim PTX: ... done pre-decoding instructions for '_Z23hash_insert_cuckoo_nvmbP8bucket_sPP7ielem_sPi'.
GPGPU-Sim PTX: pushing kernel '_Z23hash_insert_cuckoo_nvmbP8bucket_sPP7ielem_sPi' to stream 1, gridDim= (8,1,1) blockDim = (1024,1,1) 
GPGPU-Sim: synchronize waiting for inactive GPU simulation
GPGPU-Sim API: Stream Manager State
GPGPU-Sim API:    stream 1 has 1 operations
GPGPU-Sim API:       0 :  stream operation kernel
GPGPU-Sim uArch: Shader 0 bind to kernel 1 '_Z23hash_insert_cuckoo_nvmbP8bucket_sPP7ielem_sPi'
GPGPU-Sim uArch: CTA/core = 1, limited by: regs
GPGPU-Sim: Reconfigure L1 cache to 128KB
GPGPU-Sim uArch: Shader 1 bind to kernel 1 '_Z23hash_insert_cuckoo_nvmbP8bucket_sPP7ielem_sPi'
GPGPU-Sim uArch: Shader 2 bind to kernel 1 '_Z23hash_insert_cuckoo_nvmbP8bucket_sPP7ielem_sPi'
GPGPU-Sim uArch: Shader 3 bind to kernel 1 '_Z23hash_insert_cuckoo_nvmbP8bucket_sPP7ielem_sPi'
GPGPU-Sim uArch: Shader 4 bind to kernel 1 '_Z23hash_insert_cuckoo_nvmbP8bucket_sPP7ielem_sPi'
GPGPU-Sim uArch: Shader 5 bind to kernel 1 '_Z23hash_insert_cuckoo_nvmbP8bucket_sPP7ielem_sPi'
GPGPU-Sim uArch: Shader 6 bind to kernel 1 '_Z23hash_insert_cuckoo_nvmbP8bucket_sPP7ielem_sPi'
GPGPU-Sim uArch: Shader 7 bind to kernel 1 '_Z23hash_insert_cuckoo_nvmbP8bucket_sPP7ielem_sPi'
Destroy streams for kernel 1: size 0
kernel_name = _Z23hash_insert_cuckoo_nvmbP8bucket_sPP7ielem_sPi 
kernel_launch_uid = 1 
gpu_sim_cycle = 208296
gpu_sim_insn = 32563200
gpu_ipc =     156.3314
gpu_tot_sim_cycle = 208296
gpu_tot_sim_insn = 32563200
gpu_tot_ipc =     156.3314
gpu_tot_issued_cta = 8
gpu_occupancy = 49.9806% 
gpu_tot_occupancy = 49.9806% 
max_total_param_size = 0
gpu_stall_dramfull = 0
gpu_stall_icnt2sh    = 0
partiton_level_parallism =       1.3801
partiton_level_parallism_total  =       1.3801
partiton_level_parallism_util =       2.0148
partiton_level_parallism_util_total  =       2.0148
L2_BW  =      49.9941 GB/Sec
L2_BW_total  =      49.9941 GB/Sec
gpu_total_sim_rate=118843

========= Core cache stats =========
L1I_cache:
	L1I_total_cache_accesses = 0
	L1I_total_cache_misses = 0
	L1I_total_cache_pending_hits = 0
	L1I_total_cache_reservation_fails = 0
L1D_cache:
	L1D_cache_core[0]: Access = 53312, Miss = 33218, Miss_rate = 0.623, Pending_hits = 0, Reservation_fails = 0
	L1D_cache_core[1]: Access = 53312, Miss = 33708, Miss_rate = 0.632, Pending_hits = 0, Reservation_fails = 0
	L1D_cache_core[2]: Access = 53312, Miss = 33601, Miss_rate = 0.630, Pending_hits = 0, Reservation_fails = 0
	L1D_cache_core[3]: Access = 53312, Miss = 33196, Miss_rate = 0.623, Pending_hits = 0, Reservation_fails = 0
	L1D_cache_core[4]: Access = 53312, Miss = 33177, Miss_rate = 0.622, Pending_hits = 0, Reservation_fails = 0
	L1D_cache_core[5]: Access = 53312, Miss = 33146, Miss_rate = 0.622, Pending_hits = 0, Reservation_fails = 0
	L1D_cache_core[6]: Access = 53312, Miss = 33426, Miss_rate = 0.627, Pending_hits = 0, Reservation_fails = 0
	L1D_cache_core[7]: Access = 53312, Miss = 33303, Miss_rate = 0.625, Pending_hits = 0, Reservation_fails = 0
	L1D_cache_core[8]: Access = 0, Miss = 0, Miss_rate = -nan, Pending_hits = 0, Reservation_fails = 0
	L1D_cache_core[9]: Access = 0, Miss = 0, Miss_rate = -nan, Pending_hits = 0, Reservation_fails = 0
	L1D_cache_core[10]: Access = 0, Miss = 0, Miss_rate = -nan, Pending_hits = 0, Reservation_fails = 0
	L1D_cache_core[11]: Access = 0, Miss = 0, Miss_rate = -nan, Pending_hits = 0, Reservation_fails = 0
	L1D_cache_core[12]: Access = 0, Miss = 0, Miss_rate = -nan, Pending_hits = 0, Reservation_fails = 0
	L1D_cache_core[13]: Access = 0, Miss = 0, Miss_rate = -nan, Pending_hits = 0, Reservation_fails = 0
	L1D_cache_core[14]: Access = 0, Miss = 0, Miss_rate = -nan, Pending_hits = 0, Reservation_fails = 0
	L1D_cache_core[15]: Access = 0, Miss = 0, Miss_rate = -nan, Pending_hits = 0, Reservation_fails = 0
	L1D_cache_core[16]: Access = 0, Miss = 0, Miss_rate = -nan, Pending_hits = 0, Reservation_fails = 0
	L1D_cache_core[17]: Access = 0, Miss = 0, Miss_rate = -nan, Pending_hits = 0, Reservation_fails = 0
	L1D_cache_core[18]: Access = 0, Miss = 0, Miss_rate = -nan, Pending_hits = 0, Reservation_fails = 0
	L1D_cache_core[19]: Access = 0, Miss = 0, Miss_rate = -nan, Pending_hits = 0, Reservation_fails = 0
	L1D_cache_core[20]: Access = 0, Miss = 0, Miss_rate = -nan, Pending_hits = 0, Reservation_fails = 0
	L1D_cache_core[21]: Access = 0, Miss = 0, Miss_rate = -nan, Pending_hits = 0, Reservation_fails = 0
	L1D_cache_core[22]: Access = 0, Miss = 0, Miss_rate = -nan, Pending_hits = 0, Reservation_fails = 0
	L1D_cache_core[23]: Access = 0, Miss = 0, Miss_rate = -nan, Pending_hits = 0, Reservation_fails = 0
	L1D_cache_core[24]: Access = 0, Miss = 0, Miss_rate = -nan, Pending_hits = 0, Reservation_fails = 0
	L1D_cache_core[25]: Access = 0, Miss = 0, Miss_rate = -nan, Pending_hits = 0, Reservation_fails = 0
	L1D_cache_core[26]: Access = 0, Miss = 0, Miss_rate = -nan, Pending_hits = 0, Reservation_fails = 0
	L1D_cache_core[27]: Access = 0, Miss = 0, Miss_rate = -nan, Pending_hits = 0, Reservation_fails = 0
	L1D_cache_core[28]: Access = 0, Miss = 0, Miss_rate = -nan, Pending_hits = 0, Reservation_fails = 0
	L1D_cache_core[29]: Access = 0, Miss = 0, Miss_rate = -nan, Pending_hits = 0, Reservation_fails = 0
	L1D_cache_core[30]: Access = 0, Miss = 0, Miss_rate = -nan, Pending_hits = 0, Reservation_fails = 0
	L1D_cache_core[31]: Access = 0, Miss = 0, Miss_rate = -nan, Pending_hits = 0, Reservation_fails = 0
	L1D_cache_core[32]: Access = 0, Miss = 0, Miss_rate = -nan, Pending_hits = 0, Reservation_fails = 0
	L1D_cache_core[33]: Access = 0, Miss = 0, Miss_rate = -nan, Pending_hits = 0, Reservation_fails = 0
	L1D_cache_core[34]: Access = 0, Miss = 0, Miss_rate = -nan, Pending_hits = 0, Reservation_fails = 0
	L1D_cache_core[35]: Access = 0, Miss = 0, Miss_rate = -nan, Pending_hits = 0, Reservation_fails = 0
	L1D_cache_core[36]: Access = 0, Miss = 0, Miss_rate = -nan, Pending_hits = 0, Reservation_fails = 0
	L1D_cache_core[37]: Access = 0, Miss = 0, Miss_rate = -nan, Pending_hits = 0, Reservation_fails = 0
	L1D_cache_core[38]: Access = 0, Miss = 0, Miss_rate = -nan, Pending_hits = 0, Reservation_fails = 0
	L1D_cache_core[39]: Access = 0, Miss = 0, Miss_rate = -nan, Pending_hits = 0, Reservation_fails = 0
	L1D_cache_core[40]: Access = 0, Miss = 0, Miss_rate = -nan, Pending_hits = 0, Reservation_fails = 0
	L1D_cache_core[41]: Access = 0, Miss = 0, Miss_rate = -nan, Pending_hits = 0, Reservation_fails = 0
	L1D_cache_core[42]: Access = 0, Miss = 0, Miss_rate = -nan, Pending_hits = 0, Reservation_fails = 0
	L1D_cache_core[43]: Access = 0, Miss = 0, Miss_rate = -nan, Pending_hits = 0, Reservation_fails = 0
	L1D_cache_core[44]: Access = 0, Miss = 0, Miss_rate = -nan, Pending_hits = 0, Reservation_fails = 0
	L1D_cache_core[45]: Access = 0, Miss = 0, Miss_rate = -nan, Pending_hits = 0, Reservation_fails = 0
	L1D_cache_core[46]: Access = 0, Miss = 0, Miss_rate = -nan, Pending_hits = 0, Reservation_fails = 0
	L1D_cache_core[47]: Access = 0, Miss = 0, Miss_rate = -nan, Pending_hits = 0, Reservation_fails = 0
	L1D_cache_core[48]: Access = 0, Miss = 0, Miss_rate = -nan, Pending_hits = 0, Reservation_fails = 0
	L1D_cache_core[49]: Access = 0, Miss = 0, Miss_rate = -nan, Pending_hits = 0, Reservation_fails = 0
	L1D_cache_core[50]: Access = 0, Miss = 0, Miss_rate = -nan, Pending_hits = 0, Reservation_fails = 0
	L1D_cache_core[51]: Access = 0, Miss = 0, Miss_rate = -nan, Pending_hits = 0, Reservation_fails = 0
	L1D_cache_core[52]: Access = 0, Miss = 0, Miss_rate = -nan, Pending_hits = 0, Reservation_fails = 0
	L1D_cache_core[53]: Access = 0, Miss = 0, Miss_rate = -nan, Pending_hits = 0, Reservation_fails = 0
	L1D_cache_core[54]: Access = 0, Miss = 0, Miss_rate = -nan, Pending_hits = 0, Reservation_fails = 0
	L1D_cache_core[55]: Access = 0, Miss = 0, Miss_rate = -nan, Pending_hits = 0, Reservation_fails = 0
	L1D_cache_core[56]: Access = 0, Miss = 0, Miss_rate = -nan, Pending_hits = 0, Reservation_fails = 0
	L1D_cache_core[57]: Access = 0, Miss = 0, Miss_rate = -nan, Pending_hits = 0, Reservation_fails = 0
	L1D_cache_core[58]: Access = 0, Miss = 0, Miss_rate = -nan, Pending_hits = 0, Reservation_fails = 0
	L1D_cache_core[59]: Access = 0, Miss = 0, Miss_rate = -nan, Pending_hits = 0, Reservation_fails = 0
	L1D_cache_core[60]: Access = 0, Miss = 0, Miss_rate = -nan, Pending_hits = 0, Reservation_fails = 0
	L1D_cache_core[61]: Access = 0, Miss = 0, Miss_rate = -nan, Pending_hits = 0, Reservation_fails = 0
	L1D_cache_core[62]: Access = 0, Miss = 0, Miss_rate = -nan, Pending_hits = 0, Reservation_fails = 0
	L1D_cache_core[63]: Access = 0, Miss = 0, Miss_rate = -nan, Pending_hits = 0, Reservation_fails = 0
	L1D_cache_core[64]: Access = 0, Miss = 0, Miss_rate = -nan, Pending_hits = 0, Reservation_fails = 0
	L1D_cache_core[65]: Access = 0, Miss = 0, Miss_rate = -nan, Pending_hits = 0, Reservation_fails = 0
	L1D_cache_core[66]: Access = 0, Miss = 0, Miss_rate = -nan, Pending_hits = 0, Reservation_fails = 0
	L1D_cache_core[67]: Access = 0, Miss = 0, Miss_rate = -nan, Pending_hits = 0, Reservation_fails = 0
	L1D_cache_core[68]: Access = 0, Miss = 0, Miss_rate = -nan, Pending_hits = 0, Reservation_fails = 0
	L1D_cache_core[69]: Access = 0, Miss = 0, Miss_rate = -nan, Pending_hits = 0, Reservation_fails = 0
	L1D_cache_core[70]: Access = 0, Miss = 0, Miss_rate = -nan, Pending_hits = 0, Reservation_fails = 0
	L1D_cache_core[71]: Access = 0, Miss = 0, Miss_rate = -nan, Pending_hits = 0, Reservation_fails = 0
	L1D_cache_core[72]: Access = 0, Miss = 0, Miss_rate = -nan, Pending_hits = 0, Reservation_fails = 0
	L1D_cache_core[73]: Access = 0, Miss = 0, Miss_rate = -nan, Pending_hits = 0, Reservation_fails = 0
	L1D_cache_core[74]: Access = 0, Miss = 0, Miss_rate = -nan, Pending_hits = 0, Reservation_fails = 0
	L1D_cache_core[75]: Access = 0, Miss = 0, Miss_rate = -nan, Pending_hits = 0, Reservation_fails = 0
	L1D_cache_core[76]: Access = 0, Miss = 0, Miss_rate = -nan, Pending_hits = 0, Reservation_fails = 0
	L1D_cache_core[77]: Access = 0, Miss = 0, Miss_rate = -nan, Pending_hits = 0, Reservation_fails = 0
	L1D_cache_core[78]: Access = 0, Miss = 0, Miss_rate = -nan, Pending_hits = 0, Reservation_fails = 0
	L1D_cache_core[79]: Access = 0, Miss = 0, Miss_rate = -nan, Pending_hits = 0, Reservation_fails = 0
	L1D_total_cache_accesses = 426496
	L1D_total_cache_misses = 266775
	L1D_total_cache_miss_rate = 0.6255
	L1D_total_cache_pending_hits = 0
	L1D_total_cache_reservation_fails = 0
	L1D_cache_data_port_util = 0.099
	L1D_cache_fill_port_util = 0.097
L1C_cache:
	L1C_total_cache_accesses = 0
	L1C_total_cache_misses = 0
	L1C_total_cache_pending_hits = 0
	L1C_total_cache_reservation_fails = 0
L1T_cache:
	L1T_total_cache_accesses = 0
	L1T_total_cache_misses = 0
	L1T_total_cache_pending_hits = 0
	L1T_total_cache_reservation_fails = 0

Total_core_cache_stats:
	Total_core_cache_stats_breakdown[GLOBAL_ACC_R][HIT] = 97561
	Total_core_cache_stats_breakdown[GLOBAL_ACC_R][HIT_RESERVED] = 0
	Total_core_cache_stats_breakdown[GLOBAL_ACC_R][MISS] = 141600
	Total_core_cache_stats_breakdown[GLOBAL_ACC_R][RESERVATION_FAIL] = 0
	Total_core_cache_stats_breakdown[GLOBAL_ACC_R][SECTOR_MISS] = 56263
	Total_core_cache_stats_breakdown[LOCAL_ACC_R][HIT] = 0
	Total_core_cache_stats_breakdown[LOCAL_ACC_R][HIT_RESERVED] = 0
	Total_core_cache_stats_breakdown[LOCAL_ACC_R][MISS] = 0
	Total_core_cache_stats_breakdown[LOCAL_ACC_R][RESERVATION_FAIL] = 0
	Total_core_cache_stats_breakdown[LOCAL_ACC_R][SECTOR_MISS] = 0
	Total_core_cache_stats_breakdown[CONST_ACC_R][HIT] = 0
	Total_core_cache_stats_breakdown[CONST_ACC_R][HIT_RESERVED] = 0
	Total_core_cache_stats_breakdown[CONST_ACC_R][MISS] = 0
	Total_core_cache_stats_breakdown[CONST_ACC_R][RESERVATION_FAIL] = 0
	Total_core_cache_stats_breakdown[CONST_ACC_R][SECTOR_MISS] = 0
	Total_core_cache_stats_breakdown[TEXTURE_ACC_R][HIT] = 0
	Total_core_cache_stats_breakdown[TEXTURE_ACC_R][HIT_RESERVED] = 0
	Total_core_cache_stats_breakdown[TEXTURE_ACC_R][MISS] = 0
	Total_core_cache_stats_breakdown[TEXTURE_ACC_R][RESERVATION_FAIL] = 0
	Total_core_cache_stats_breakdown[TEXTURE_ACC_R][SECTOR_MISS] = 0
	Total_core_cache_stats_breakdown[GLOBAL_ACC_W][HIT] = 62160
	Total_core_cache_stats_breakdown[GLOBAL_ACC_W][HIT_RESERVED] = 0
	Total_core_cache_stats_breakdown[GLOBAL_ACC_W][MISS] = 3376
	Total_core_cache_stats_breakdown[GLOBAL_ACC_W][RESERVATION_FAIL] = 0
	Total_core_cache_stats_breakdown[GLOBAL_ACC_W][SECTOR_MISS] = 65536
	Total_core_cache_stats_breakdown[LOCAL_ACC_W][HIT] = 0
	Total_core_cache_stats_breakdown[LOCAL_ACC_W][HIT_RESERVED] = 0
	Total_core_cache_stats_breakdown[LOCAL_ACC_W][MISS] = 0
	Total_core_cache_stats_breakdown[LOCAL_ACC_W][RESERVATION_FAIL] = 0
	Total_core_cache_stats_breakdown[LOCAL_ACC_W][SECTOR_MISS] = 0
	Total_core_cache_stats_breakdown[L1_WRBK_ACC][HIT] = 0
	Total_core_cache_stats_breakdown[L1_WRBK_ACC][HIT_RESERVED] = 0
	Total_core_cache_stats_breakdown[L1_WRBK_ACC][MISS] = 0
	Total_core_cache_stats_breakdown[L1_WRBK_ACC][RESERVATION_FAIL] = 0
	Total_core_cache_stats_breakdown[L1_WRBK_ACC][SECTOR_MISS] = 0
	Total_core_cache_stats_breakdown[L2_WRBK_ACC][HIT] = 0
	Total_core_cache_stats_breakdown[L2_WRBK_ACC][HIT_RESERVED] = 0
	Total_core_cache_stats_breakdown[L2_WRBK_ACC][MISS] = 0
	Total_core_cache_stats_breakdown[L2_WRBK_ACC][RESERVATION_FAIL] = 0
	Total_core_cache_stats_breakdown[L2_WRBK_ACC][SECTOR_MISS] = 0
	Total_core_cache_stats_breakdown[INST_ACC_R][HIT] = 0
	Total_core_cache_stats_breakdown[INST_ACC_R][HIT_RESERVED] = 0
	Total_core_cache_stats_breakdown[INST_ACC_R][MISS] = 0
	Total_core_cache_stats_breakdown[INST_ACC_R][RESERVATION_FAIL] = 0
	Total_core_cache_stats_breakdown[INST_ACC_R][SECTOR_MISS] = 0
	Total_core_cache_stats_breakdown[L1_WR_ALLOC_R][HIT] = 0
	Total_core_cache_stats_breakdown[L1_WR_ALLOC_R][HIT_RESERVED] = 0
	Total_core_cache_stats_breakdown[L1_WR_ALLOC_R][MISS] = 0
	Total_core_cache_stats_breakdown[L1_WR_ALLOC_R][RESERVATION_FAIL] = 0
	Total_core_cache_stats_breakdown[L1_WR_ALLOC_R][SECTOR_MISS] = 0
	Total_core_cache_stats_breakdown[L2_WR_ALLOC_R][HIT] = 0
	Total_core_cache_stats_breakdown[L2_WR_ALLOC_R][HIT_RESERVED] = 0
	Total_core_cache_stats_breakdown[L2_WR_ALLOC_R][MISS] = 0
	Total_core_cache_stats_breakdown[L2_WR_ALLOC_R][RESERVATION_FAIL] = 0
	Total_core_cache_stats_breakdown[L2_WR_ALLOC_R][SECTOR_MISS] = 0
	Total_core_cache_stats_breakdown[GLOBAL_ACC_R][TOTAL_ACCESS] = 295424
	Total_core_cache_stats_breakdown[GLOBAL_ACC_W][TOTAL_ACCESS] = 131072

Total_core_cache_fail_stats:
Shader 0 warp_id issue ditsribution:
warp_id:
0, 1, 2, 3, 4, 5, 6, 7, 8, 9, 10, 11, 12, 13, 14, 15, 16, 17, 18, 19, 20, 21, 22, 23, 24, 25, 26, 27, 28, 29, 30, 31, 
distro:
4697, 4697, 4697, 4697, 4697, 4697, 4697, 4697, 4697, 4697, 4697, 4697, 4697, 4697, 4697, 4697, 4697, 4697, 4697, 4697, 4697, 4697, 4697, 4697, 4697, 4697, 4697, 4697, 4697, 4697, 4697, 4697, 
gpgpu_n_tot_thrd_icount = 38477824
gpgpu_n_tot_w_icount = 1202432
gpgpu_n_stall_shd_mem = 294912
gpgpu_n_mem_read_local = 0
gpgpu_n_mem_write_local = 0
gpgpu_n_mem_read_global = 156405
gpgpu_n_mem_write_global = 131072
gpgpu_n_mem_texture = 0
gpgpu_n_mem_const = 0
gpgpu_n_load_insn  = 3162112
gpgpu_n_store_insn = 131072
gpgpu_n_shmem_insn = 0
gpgpu_n_sstarr_insn = 0
gpgpu_n_tex_insn = 0
gpgpu_n_const_mem_insn = 0
gpgpu_n_param_mem_insn = 24576
gpgpu_n_shmem_bkconflict = 0
gpgpu_n_cache_bkconflict = 0
gpgpu_n_intrawarp_mshr_merge = 0
gpgpu_n_cmem_portconflict = 0
gpgpu_stall_shd_mem[c_mem][resource_stall] = 0
gpgpu_stall_shd_mem[s_mem][bk_conf] = 0
gpgpu_stall_shd_mem[gl_mem][resource_stall] = 294912
gpgpu_stall_shd_mem[gl_mem][coal_stall] = 0
gpgpu_stall_shd_mem[gl_mem][data_port_stall] = 0
gpu_reg_bank_conflict_stalls = 0
Warp Occupancy Distribution:
Stall:94429	W0_Idle:1984177	W0_Scoreboard:3141214	W1:0	W2:0	W3:0	W4:131072	W5:0	W6:0	W7:0	W8:0	W9:0	W10:0	W11:0	W12:0	W13:0	W14:0	W15:0	W16:0	W17:0	W18:0	W19:0	W20:0	W21:0	W22:0	W23:0	W24:0	W25:0	W26:0	W27:0	W28:0	W29:0	W30:0	W31:0	W32:1071360
single_issue_nums: WS0:300608	WS1:300608	WS2:300608	WS3:300608	
dual_issue_nums: WS0:0	WS1:0	WS2:0	WS3:0	
traffic_breakdown_coretomem[GLOBAL_ACC_R] = 1251240 {8:156405,}
traffic_breakdown_coretomem[GLOBAL_ACC_W] = 5242880 {40:131072,}
traffic_breakdown_memtocore[GLOBAL_ACC_R] = 6256200 {40:156405,}
traffic_breakdown_memtocore[GLOBAL_ACC_W] = 1048576 {8:131072,}
maxmflatency = 1147 
max_icnt2mem_latency = 134 
maxmrqlatency = 296 
max_icnt2sh_latency = 60 
averagemflatency = 455 
avg_icnt2mem_latency = 23 
avg_mrq_latency = 6 
avg_icnt2sh_latency = 2 
mrq_lat_table:92044 	43185 	2568 	3612 	8560 	7420 	3212 	341 	5 	0 	0 	0 	0 	0 	0 	0 	0 	0 	0 	0 	0 	0 	0 	0 	0 	0 	0 	0 	0 	0 	0 	0 	
dq_lat_table:0 	0 	0 	0 	0 	0 	0 	0 	0 	0 	0 	0 	0 	0 	0 	0 	0 	0 	0 	0 	0 	0 	0 	0 	0 	0 	0 	0 	0 	0 	0 	0 	
mf_lat_table:0 	0 	0 	0 	0 	0 	0 	146872 	26785 	113815 	5 	0 	0 	0 	0 	0 	0 	0 	0 	0 	0 	0 	0 	0 	0 	0 	0 	0 	0 	0 	0 	0 	
icnt2mem_lat_table:0 	0 	0 	0 	287117 	115 	237 	8 	0 	0 	0 	0 	0 	0 	0 	0 	0 	0 	0 	0 	0 	0 	0 	0 	
icnt2sh_lat_table:0 	256509 	29039 	1607 	275 	47 	0 	0 	0 	0 	0 	0 	0 	0 	0 	0 	0 	0 	0 	0 	0 	0 	0 	0 	
mf_lat_pw_table:0 	0 	0 	0 	0 	0 	0 	46 	172 	188 	0 	0 	0 	0 	0 	0 	0 	0 	0 	0 	0 	0 	0 	0 	0 	0 	0 	0 	0 	0 	0 	0 	
maximum concurrent accesses to same row:
dram[0]:         8         8         8         8         8         8         8         8         8         8        16        12         2         2         2         2 
dram[1]:         8         8         8        16         8         8         8         8         8         8        16        12         2         2         2         2 
dram[2]:         8         8         8         8         8        13         8         8        12         8        11        16         2         2         2         2 
dram[3]:         8         8         8        12         8         8         8         8         5         8        14        15         2         2         2         2 
dram[4]:         8         8         8         8         8         8         4         8         5         8        12        16         2         2         2         2 
dram[5]:         8         8         8         8         8         8         8         8         8         8        12        16         4         2         2         3 
dram[6]:         8         8         7         8         8         8         8         8         7         8        12        12         2         2         2         2 
dram[7]:         6         8         8         8        12         8         8         8         8         8        12        16         3         2         2         2 
dram[8]:         8         8         8         8         8         8         8         8         8         8        16        13         2         2         2         2 
dram[9]:         8         8         8         8         8         8         8         8         8         8        16        16         2         2         2         2 
dram[10]:         8         8         8         8         8        12         8         8         8         8        12        14         2         2         2         2 
dram[11]:         4         8         8        16         8         8         8         8         4         8        16        16         2         2         3         2 
dram[12]:         7         8         8         8         8         8         8         8         8         8        16        16         2         2         2         2 
dram[13]:         6         8         8         8         8        12         8         8         8         8        13        16         2         2         2         2 
dram[14]:         8         8         8        16         8         8         8         8         8         8        12        16         2         2         2         2 
dram[15]:         8         8         5         4         8         8         5         8         8         8        16        11         2         2         2         2 
dram[16]:         8         8         8         8         8         8         8         8         8         8        16        16         2         2         2         2 
dram[17]:         8         8         8         8         8         8         8         8         8         8        12        16         2         2         2         3 
dram[18]:         8         8         8        16         8        16         8         8         4         8        12        16         4         2         2         2 
dram[19]:         8         8         8        16        12        16         8         8         7         8        12        16         2         2         2         2 
dram[20]:         8         8        16         8         8         8         8         8         8         8        12        16         2         2         2         2 
dram[21]:         8         8        16        16         8         8         8         8         8         8        16        16         2         2         2         2 
dram[22]:         8         8         8         8         8         8         8         8         8         8        16        16         2         4         2         2 
dram[23]:         8         8         8         8         8         8         8         8         8         8        12        16         2         2         2         2 
dram[24]:         7         8         8        16         8         8         8         8         8        12        16        13         2         2         2         2 
dram[25]:         8         8         8         8         8         8         8         8         8         8        12        16         2         2         2         2 
dram[26]:         8         8         8         8        16         8         8         8         8         8        12        16         2         2         2         2 
dram[27]:         8         4         8         8         8         8         8         8         8         8        12        16         2         2         2         4 
dram[28]:         8         8         8        16         8         8         8         8         8         8        12        16         2         2         2         2 
dram[29]:         8         8         8         8         8         8         8         8         8         8        16        13         2         2         2         2 
dram[30]:         8         8         8         8         8         8         8         8         8         8        12        16         2         2         2         2 
dram[31]:         8         8         8         8         8         8         8         8         8        12        16        16         2         2         2         2 
maximum service time to same row:
dram[0]:      6377      8344      9951      6274      7520      8123      7012      6254      6439      6273      6768      8898      6389      8919      7978      8982 
dram[1]:      6718      8834      6381      9649      6241      8397      6332      6672      6927      7623      8986      6266      6425      9882      6487      6341 
dram[2]:      7402      8108      6277      6961      9261      8926      7042      6382      7462      6999      6371      8858      6374      6257      6209      7727 
dram[3]:      7830      6265      7680      7282      6532      7986      6337      7407      8053      6451      8755      6361      6940      8503      8952      6257 
dram[4]:      6242      6301      7936     10763      6421      8890      7567      6448      6682      6373      9229      6630      6253      6305      9005      9622 
dram[5]:      6254     11829      6257      8343      6306      6249      9206      8585      7540      7872      6338     10674      8977      9662      8921      6241 
dram[6]:      8782     11354      8336      6330      7760     10021      7484      8968      8859      6704      8947      6804      7651      6224      6286      6229 
dram[7]:      6289      6317      8514      8786      8863      8875      6381      6317      8846      6378      9077      9860     12185      6915      6286      8867 
dram[8]:      8296      8902      7038      9624      6703      6297      8417      7433      6261      6265      9174     11757      6270      8830      6929      6902 
dram[9]:      7099      8052      6901      6612      6346     11432      6381      9791      7219      6491      7273      6361      6369      6269      8899      8943 
dram[10]:      7662      6213      7843      6699      9128      7628      7483      6333      6302      6265      6403      7543      6237      6317      6208      6964 
dram[11]:      8759      6245     12805      6406      8061      6230     15520      6265      8890      6302      6333      6314      8393      6409      9703     11419 
dram[12]:     11654      6309      7514      8882      8069      6229      6366      6272      6253      6350      6273      6232      6208      6269      6337      6527 
dram[13]:      7330     10230      8811      7902      6681      9575      7571      8081      7034      8125      8627     11052      6847      8902      6748      6390 
dram[14]:      6233      6455      6405      6390      6354      6269      8815      7955      7494      7619      6370      6350      6229      6273     12123      8838 
dram[15]:      6318      8646      7074      6207      6696      6282      8894      8900      6253      6258      8971      9578      6229     12149      6445     13034 
dram[16]:      7145      7302      6415      6765      9286      6242      6397      8278      6353      6382      7341      7655      6503      6308      6269      7626 
dram[17]:      7102      8794      7156      6298      6362      6422      8818      7941      6405      6326      9848      6341     12278      8782      6599      6406 
dram[18]:     11447      8790     10344      9296      7206      6234      6233      8605      6302      9111      6297      9422      7146     10099      8859      6261 
dram[19]:      6348     11558      7264      7639      7344      8831      9459      6425      7123      8056      7723      8523      6964      6321      6605      6265 
dram[20]:      7212      6544      7604      6405      6281      6229      6840      6321      9938     11644      6523     11044      6333      6290      6675      6314 
dram[21]:      7273      6390      6246      8890      7146      8939      6843      8918      6253      6424      6245      7771      7370      7250      6212      6703 
dram[22]:      8843      7727      6300      6548      8538      6338      6229      6657      8930      7655      8359      8879      9622      7923      6266      8902 
dram[23]:      8144      6857      7084      6237      7293      6350      6333      9101      6347      9005      9780      6250     10248      6487     10336      6233 
dram[24]:      6451      7423      7407      7286      8842      6261     10131      6277     11459      6671      7719      6258      8354      6238      6317      6858 
dram[25]:      6310      9002      6581      7492      9351      9095      6413      6425      6317      6320      6230      6229      6780      6265      8701      9245 
dram[26]:      7229     13486      9077      7222      6293      6353      7497      6409      6345      8806      6381     11436      7607      6809      8854      8979 
dram[27]:      6212      6285      6265      7763      6338      6259      8862      7037      6301      6603     16566      6866     12945      9566      6357      8906 
dram[28]:      6382      7197      6262      6297      6305      8834      7258      6209     12384     11316      7669      6245      6378      8890      8894      6853 
dram[29]:      6558      8835      8935      6362      7552      6822      6425      6413      6916      6224      6454      7628      6261      8851      8477      7058 
dram[30]:      6509      6285      6687      6250      7586      6452      8954      6265      7120      6381      7121      6249      9405      7311      6301      6420 
dram[31]:      6689      6249      6266      6316      7064      7324      8467      7615      6229      8902      6553      6302      7171      6377      6446      6816 
average row accesses per activate:
dram[0]:  1.121711  1.182482  1.191837  1.139466  1.173333  1.196610  1.188679  1.150877  1.148855  1.170455  1.208333  1.216730  1.096886  1.094118  1.098814  1.098485 
dram[1]:  1.189427  1.125461  1.141844  1.205224  1.173077  1.243363  1.203540  1.179916  1.106667  1.200873  1.225092  1.178862  1.084906  1.111111  1.084291  1.119231 
dram[2]:  1.176229  1.134483  1.134146  1.160714  1.191882  1.240157  1.192000  1.151316  1.180556  1.119874  1.177122  1.216028  1.089965  1.089655  1.139535  1.123077 
dram[3]:  1.154135  1.165441  1.193833  1.178030  1.237500  1.228137  1.169173  1.177966  1.153846  1.197628  1.197133  1.163333  1.102837  1.139303  1.114173  1.120172 
dram[4]:  1.152091  1.193548  1.184685  1.151111  1.185022  1.336493  1.156951  1.188596  1.122378  1.158672  1.208889  1.242291  1.168950  1.126923  1.105839  1.074733 
dram[5]:  1.127586  1.134680  1.121212  1.159468  1.183521  1.176656  1.209924  1.144201  1.083056  1.149466  1.176667  1.281250  1.110266  1.097015  1.115385  1.105691 
dram[6]:  1.196581  1.167969  1.113014  1.184615  1.159322  1.219298  1.128114  1.156951  1.163551  1.199115  1.216326  1.160959  1.116883  1.119403  1.130909  1.147887 
dram[7]:  1.207627  1.135952  1.122807  1.170125  1.227451  1.199262  1.160142  1.157480  1.179039  1.156364  1.261261  1.254980  1.094650  1.125954  1.096990  1.111111 
dram[8]:  1.132812  1.141379  1.134483  1.200803  1.169675  1.197880  1.180392  1.233010  1.185950  1.174545  1.221804  1.264706  1.092308  1.138340  1.127854  1.156951 
dram[9]:  1.212389  1.193676  1.122867  1.125000  1.176667  1.218750  1.130742  1.148148  1.119048  1.137457  1.156923  1.159744  1.087912  1.094697  1.183908  1.079498 
dram[10]:  1.142336  1.126316  1.195745  1.141104  1.189591  1.232456  1.162791  1.115132  1.134228  1.138060  1.217742  1.364532  1.109966  1.122449  1.119565  1.057432 
dram[11]:  1.118644  1.153846  1.202335  1.222641  1.202586  1.182927  1.169565  1.115819  1.165413  1.201465  1.197411  1.211321  1.117391  1.123595  1.106719  1.113445 
dram[12]:  1.144981  1.150470  1.223629  1.196000  1.150641  1.204225  1.136213  1.112637  1.197917  1.191336  1.165563  1.227273  1.086687  1.081325  1.130435  1.133858 
dram[13]:  1.164706  1.203620  1.143791  1.185874  1.169014  1.181070  1.134831  1.146853  1.128814  1.151163  1.192982  1.174497  1.103203  1.120833  1.127049  1.127572 
dram[14]:  1.189286  1.167808  1.178182  1.200772  1.160410  1.211321  1.242291  1.157258  1.177606  1.166667  1.225681  1.262295  1.080645  1.090253  1.127119  1.119835 
dram[15]:  1.184116  1.259259  1.133956  1.144487  1.202899  1.187500  1.130282  1.203704  1.215447  1.182759  1.190840  1.197183  1.098592  1.126984  1.149780  1.127907 
dram[16]:  1.144444  1.165441  1.169611  1.221804  1.167969  1.174847  1.143860  1.156028  1.151852  1.131250  1.219331  1.205480  1.121094  1.070588  1.115385  1.108303 
dram[17]:  1.159259  1.152381  1.145594  1.179661  1.262548  1.185185  1.142857  1.143396  1.201581  1.167832  1.181818  1.227586  1.098655  1.157205  1.106299  1.094276 
dram[18]:  1.207729  1.169065  1.207469  1.284314  1.151203  1.164134  1.195833  1.180556  1.125000  1.188679  1.275862  1.295775  1.177034  1.123134  1.128000  1.124498 
dram[19]:  1.128302  1.225962  1.203620  1.216312  1.257919  1.219331  1.248756  1.192440  1.115830  1.124629  1.156997  1.207613  1.095785  1.055233  1.062284  1.122302 
dram[20]:  1.125850  1.139860  1.232653  1.201465  1.174721  1.167192  1.202479  1.181159  1.142308  1.237443  1.206107  1.226950  1.089404  1.136752  1.101562  1.140000 
dram[21]:  1.169291  1.237069  1.271186  1.221790  1.195572  1.151515  1.153310  1.178182  1.141868  1.177778  1.215909  1.213483  1.119835  1.089844  1.154762  1.129032 
dram[22]:  1.168776  1.178439  1.155642  1.148551  1.191083  1.197183  1.172549  1.199170  1.189003  1.136778  1.231707  1.268293  1.122677  1.145669  1.125000  1.101124 
dram[23]:  1.117021  1.130000  1.166667  1.190972  1.166667  1.220779  1.135762  1.102484  1.173228  1.207048  1.191882  1.250000  1.093525  1.105882  1.103846  1.108392 
dram[24]:  1.175510  1.169014  1.202290  1.213287  1.238461  1.177419  1.149466  1.137536  1.170455  1.184211  1.243590  1.196970  1.074733  1.108108  1.120755  1.080386 
dram[25]:  1.204461  1.225108  1.186131  1.169675  1.171329  1.219424  1.149635  1.170139  1.154799  1.199153  1.190938  1.213333  1.119835  1.126923  1.115079  1.088235 
dram[26]:  1.126394  1.174905  1.213740  1.223529  1.209220  1.231292  1.134100  1.144172  1.168582  1.220930  1.262948  1.349558  1.123932  1.079618  1.101887  1.076159 
dram[27]:  1.091716  1.124555  1.183908  1.187266  1.191083  1.235075  1.167315  1.183036  1.151613  1.146429  1.213740  1.298643  1.119342  1.097122  1.146939  1.097656 
dram[28]:  1.160584  1.196000  1.097421  1.163743  1.177994  1.191824  1.136986  1.141176  1.123188  1.120944  1.174545  1.207951  1.110759  1.115385  1.118959  1.067797 
dram[29]:  1.089552  1.206612  1.164516  1.197133  1.200000  1.169591  1.140845  1.103343  1.154440  1.201550  1.218868  1.188811  1.094890  1.131783  1.106007  1.128755 
dram[30]:  1.131034  1.205761  1.156352  1.222222  1.267490  1.157270  1.176030  1.135542  1.159722  1.203540  1.163763  1.279476  1.100719  1.096552  1.114391  1.080268 
dram[31]:  1.166065  1.169872  1.140000  1.165541  1.186046  1.218107  1.150171  1.163194  1.177083  1.198529  1.197080  1.205298  1.088000  1.089219  1.058020  1.111554 
average row locality = 160947/138615 = 1.161108
number of total memory accesses made:
dram[0]:         0         0         0         0         0         0         0         0         0         0         0         0         0         0         0         0 
dram[1]:         0         0         0         0         0         0         0         0         0         0         0         0         0         0         0         0 
dram[2]:         0         0         0         0         0         0         0         0         0         0         0         0         0         0         0         0 
dram[3]:         0         0         0         0         0         0         0         0         0         0         0         0         0         0         0         0 
dram[4]:         0         0         0         0         0         0         0         0         0         0         0         0         0         0         0         0 
dram[5]:         0         0         0         0         0         0         0         0         0         0         0         0         0         0         0         0 
dram[6]:         0         0         0         0         0         0         0         0         0         0         0         0         0         0         0         0 
dram[7]:         0         0         0         0         0         0         0         0         0         0         0         0         0         0         0         0 
dram[8]:         0         0         0         0         0         0         0         0         0         0         0         0         0         0         0         0 
dram[9]:         0         0         0         0         0         0         0         0         0         0         0         0         0         0         0         0 
dram[10]:         0         0         0         0         0         0         0         0         0         0         0         0         0         0         0         0 
dram[11]:         0         0         0         0         0         0         0         0         0         0         0         0         0         0         0         0 
dram[12]:         0         0         0         0         0         0         0         0         0         0         0         0         0         0         0         0 
dram[13]:         0         0         0         0         0         0         0         0         0         0         0         0         0         0         0         0 
dram[14]:         0         0         0         0         0         0         0         0         0         0         0         0         0         0         0         0 
dram[15]:         0         0         0         0         0         0         0         0         0         0         0         0         0         0         0         0 
dram[16]:         0         0         0         0         0         0         0         0         0         0         0         0         0         0         0         0 
dram[17]:         0         0         0         0         0         0         0         0         0         0         0         0         0         0         0         0 
dram[18]:         0         0         0         0         0         0         0         0         0         0         0         0         0         0         0         0 
dram[19]:         0         0         0         0         0         0         0         0         0         0         0         0         0         0         0         0 
dram[20]:         0         0         0         0         0         0         0         0         0         0         0         0         0         0         0         0 
dram[21]:         0         0         0         0         0         0         0         0         0         0         0         0         0         0         0         0 
dram[22]:         0         0         0         0         0         0         0         0         0         0         0         0         0         0         0         0 
dram[23]:         0         0         0         0         0         0         0         0         0         0         0         0         0         0         0         0 
dram[24]:         0         0         0         0         0         0         0         0         0         0         0         0         0         0         0         0 
dram[25]:         0         0         0         0         0         0         0         0         0         0         0         0         0         0         0         0 
dram[26]:         0         0         0         0         0         0         0         0         0         0         0         0         0         0         0         0 
dram[27]:         0         0         0         0         0         0         0         0         0         0         0         0         0         0         0         0 
dram[28]:         0         0         0         0         0         0         0         0         0         0         0         0         0         0         0         0 
dram[29]:         0         0         0         0         0         0         0         0         0         0         0         0         0         0         0         0 
dram[30]:         0         0         0         0         0         0         0         0         0         0         0         0         0         0         0         0 
dram[31]:         0         0         0         0         0         0         0         0         0         0         0         0         0         0         0         0 
total accesses: 0
min_bank_accesses = 0!
min_chip_accesses = 0!
number of total read accesses:
dram[0]:       158       153       140       177       171       174       145       153       141       146       159       151       137       118       119       124 
dram[1]:       127       144       146       159       146       136       125       135       148       135       160       140       149       121       125       126 
dram[2]:       133       151       173       154       156       164       142       158       164       160       150       169       134       138       127       127 
dram[3]:       142       147       134       149       146       161       143       129       117       144       162       169       138        99       123       114 
dram[4]:       138       136       122       123       133       146       119       126       151       148       131       140       115       131       132       135 
dram[5]:       147       157       172       161       148       175       150       168       148       154       166       142       127       131       115       116 
dram[6]:       135       147       151       147       166       138       145       123       114       128       142       160       113       131       137       139 
dram[7]:       133       176       148       133       154       159       145       135       129       148       139       156       117       129       142       124 
dram[8]:       133       161       152       139       157       166       140       118       133       153       162       152       122       129       106       114 
dram[9]:       126       141       154       170       170       158       148       145       149       151       179       178       127       123        92       114 
dram[10]:       143       148       128       172       154       138       139       156       159       143       151       141       140       118       134       135 
dram[11]:       148       169       149       158       133       188       129       178       142       152       178       153       112       128       123       113 
dram[12]:       144       163       139       148       169       168       153       177       165       155       166       170       145       151       124       124 
dram[13]:       138       126       162       157       163       140       140       154       152       140       164       166       132       120       121       122 
dram[14]:       155       161       152       154       163       161       136       137       147       156       153       157       142       131       117       119 
dram[15]:       149       131       169       142       164       173       148       122       141       161       156       163       132       125       114       128 
[...]
issued_total_col = 5004 
Row_Bus_Util =  0.054947 
CoL_Bus_Util = 0.031994 
Either_Row_CoL_Bus_Util = 0.082753 
Issued_on_Two_Bus_Simul_Util = 0.004188 
issued_two_Eff = 0.050607 
queue_avg = 0.130615 


dram_util_bins: 0 0 0 0 0 0 0 0 0 0
dram_eff_bins: 0 0 0 0 0 0 0 0 0 0
mrqq: max=15 avg=0.130615
Memory Partition 28: 
Cache L2_bank_056:
MSHR contents

Cache L2_bank_057:
MSHR contents

In Dram Latency Queue (total = 0): 
DRAM[28]: 16 bks, busW=16 BL=2 CL=12, tRRD=3 tCCD=1, tRCD=12 tRAS=28 tRP=12 tRC=40
n_cmd=156406 n_nop=141991 n_act=4831 n_pre=4815 n_ref_event=0 n_req=5526 n_rd=2531 n_rd_L2_A=0 n_write=2204 n_wr_bk=793 bw_util=0.03534
n_activity=78541 dram_eff=0.07038
bk0: 146a 148974i bk1: 140a 149473i bk2: 177a 146833i bk3: 188a 146711i bk4: 176a 147910i bk5: 181a 147549i bk6: 153a 148297i bk7: 174a 146461i bk8: 136a 148824i bk9: 171a 146781i bk10: 155a 148760i bk11: 196a 147232i bk12: 149a 147575i bk13: 125a 149283i bk14: 130a 148966i bk15: 134a 148290i 

------------------------------------------------------------------------

Row_Buffer_Locality = 0.125769
Row_Buffer_Locality_read = 0.110628
Row_Buffer_Locality_write = 0.138564
Bank_Level_Parallism = 2.425270
Bank_Level_Parallism_Col = 1.591107
Bank_Level_Parallism_Ready = 1.064219
write_to_read_ratio_blp_rw_average = 0.554459
GrpLevelPara = 1.431846 

BW Util details:
bwutil = 0.035344 
total_CMD = 156406 
util_bw = 5528 
Wasted_Col = 32543 
Wasted_Row = 19697 
Idle = 98638 

BW Util Bottlenecks: 
RCDc_limit = 23877 
RCDWRc_limit = 21690 
WTRc_limit = 4988 
RTWc_limit = 7999 
CCDLc_limit = 1361 
rwq = 0 
CCDLc_limit_alone = 946 
WTRc_limit_alone = 4790 
RTWc_limit_alone = 7782 

Commands details: 
total_CMD = 156406 
n_nop = 141991 
Read = 2531 
Write = 2204 
L2_Alloc = 0 
L2_WB = 793 
n_act = 4831 
n_pre = 4815 
n_ref = 0 
n_req = 5526 
total_req = 5528 

Dual Bus Interface Util: 
issued_total_row = 9646 
issued_total_col = 5528 
Row_Bus_Util =  0.061673 
CoL_Bus_Util = 0.035344 
Either_Row_CoL_Bus_Util = 0.092164 
Issued_on_Two_Bus_Simul_Util = 0.004853 
issued_two_Eff = 0.052653 
queue_avg = 0.168414 


dram_util_bins: 0 0 0 0 0 0 0 0 0 0
dram_eff_bins: 0 0 0 0 0 0 0 0 0 0
mrqq: max=18 avg=0.168414
Memory Partition 29: 
Cache L2_bank_058:
MSHR contents

Cache L2_bank_059:
MSHR contents

In Dram Latency Queue (total = 0): 
DRAM[29]: 16 bks, busW=16 BL=2 CL=12, tRRD=3 tCCD=1, tRCD=12 tRAS=28 tRP=12 tRC=40
n_cmd=156406 n_nop=142872 n_act=4507 n_pre=4491 n_ref_event=0 n_req=5203 n_rd=2422 n_rd_L2_A=0 n_write=2093 n_wr_bk=689 bw_util=0.03327
n_activity=78573 dram_eff=0.06623
bk0: 163a 147280i bk1: 138a 149790i bk2: 175a 147701i bk3: 160a 148846i bk4: 160a 149014i bk5: 197a 147002i bk6: 148a 148622i bk7: 164a 147443i bk8: 139a 149418i bk9: 146a 149232i bk10: 158a 149100i bk11: 170a 148282i bk12: 128a 148761i bk13: 126a 149111i bk14: 136a 148594i bk15: 114a 150127i 

------------------------------------------------------------------------

Row_Buffer_Locality = 0.133769
Row_Buffer_Locality_read = 0.114781
Row_Buffer_Locality_write = 0.150306
Bank_Level_Parallism = 2.264827
Bank_Level_Parallism_Col = 1.545415
Bank_Level_Parallism_Ready = 1.052075
write_to_read_ratio_blp_rw_average = 0.542613
GrpLevelPara = 1.392424 

BW Util details:
bwutil = 0.033272 
total_CMD = 156406 
util_bw = 5204 
Wasted_Col = 30930 
Wasted_Row = 20990 
Idle = 99282 

BW Util Bottlenecks: 
RCDc_limit = 22841 
RCDWRc_limit = 19963 
WTRc_limit = 4505 
RTWc_limit = 6196 
CCDLc_limit = 1273 
rwq = 0 
CCDLc_limit_alone = 902 
WTRc_limit_alone = 4311 
RTWc_limit_alone = 6019 

Commands details: 
total_CMD = 156406 
n_nop = 142872 
Read = 2422 
Write = 2093 
L2_Alloc = 0 
L2_WB = 689 
n_act = 4507 
n_pre = 4491 
n_ref = 0 
n_req = 5203 
total_req = 5204 

Dual Bus Interface Util: 
issued_total_row = 8998 
issued_total_col = 5204 
Row_Bus_Util =  0.057530 
CoL_Bus_Util = 0.033272 
Either_Row_CoL_Bus_Util = 0.086531 
Issued_on_Two_Bus_Simul_Util = 0.004271 
issued_two_Eff = 0.049357 
queue_avg = 0.149623 


dram_util_bins: 0 0 0 0 0 0 0 0 0 0
dram_eff_bins: 0 0 0 0 0 0 0 0 0 0
mrqq: max=15 avg=0.149623
Memory Partition 30: 
Cache L2_bank_060:
MSHR contents

Cache L2_bank_061:
MSHR contents

In Dram Latency Queue (total = 0): 
DRAM[30]: 16 bks, busW=16 BL=2 CL=12, tRRD=3 tCCD=1, tRCD=12 tRAS=28 tRP=12 tRC=40
n_cmd=156406 n_nop=143092 n_act=4439 n_pre=4423 n_ref_event=0 n_req=5155 n_rd=2390 n_rd_L2_A=0 n_write=2083 n_wr_bk=682 bw_util=0.03296
n_activity=75258 dram_eff=0.0685
bk0: 151a 148415i bk1: 137a 149692i bk2: 168a 147866i bk3: 147a 149381i bk4: 151a 149736i bk5: 186a 146681i bk6: 145a 148959i bk7: 171a 146993i bk8: 157a 148362i bk9: 133a 150285i bk10: 159a 148646i bk11: 151a 150034i bk12: 131a 148797i bk13: 134a 147983i bk14: 132a 149095i bk15: 137a 147977i 

------------------------------------------------------------------------

Row_Buffer_Locality = 0.138894
Row_Buffer_Locality_read = 0.109205
Row_Buffer_Locality_write = 0.164557
Bank_Level_Parallism = 2.349692
Bank_Level_Parallism_Col = 1.578605
Bank_Level_Parallism_Ready = 1.057614
write_to_read_ratio_blp_rw_average = 0.537435
GrpLevelPara = 1.413117 

BW Util details:
bwutil = 0.032959 
total_CMD = 156406 
util_bw = 5155 
Wasted_Col = 29919 
Wasted_Row = 19720 
Idle = 101612 

BW Util Bottlenecks: 
RCDc_limit = 22672 
RCDWRc_limit = 19399 
WTRc_limit = 4129 
RTWc_limit = 6688 
CCDLc_limit = 1336 
rwq = 0 
CCDLc_limit_alone = 943 
WTRc_limit_alone = 3968 
RTWc_limit_alone = 6456 

Commands details: 
total_CMD = 156406 
n_nop = 143092 
Read = 2390 
Write = 2083 
L2_Alloc = 0 
L2_WB = 682 
n_act = 4439 
n_pre = 4423 
n_ref = 0 
n_req = 5155 
total_req = 5155 

Dual Bus Interface Util: 
issued_total_row = 8862 
issued_total_col = 5155 
Row_Bus_Util =  0.056660 
CoL_Bus_Util = 0.032959 
Either_Row_CoL_Bus_Util = 0.085125 
Issued_on_Two_Bus_Simul_Util = 0.004495 
issued_two_Eff = 0.052802 
queue_avg = 0.164367 


dram_util_bins: 0 0 0 0 0 0 0 0 0 0
dram_eff_bins: 0 0 0 0 0 0 0 0 0 0
mrqq: max=14 avg=0.164367
Memory Partition 31: 
Cache L2_bank_062:
MSHR contents

Cache L2_bank_063:
MSHR contents

In Dram Latency Queue (total = 0): 
DRAM[31]: 16 bks, busW=16 BL=2 CL=12, tRRD=3 tCCD=1, tRCD=12 tRAS=28 tRP=12 tRC=40
n_cmd=156406 n_nop=142897 n_act=4509 n_pre=4493 n_ref_event=0 n_req=5211 n_rd=2438 n_rd_L2_A=0 n_write=2087 n_wr_bk=686 bw_util=0.03332
n_activity=76814 dram_eff=0.06784
bk0: 151a 149119i bk1: 175a 147716i bk2: 161a 148322i bk3: 166a 148033i bk4: 170a 148190i bk5: 144a 149671i bk6: 159a 148115i bk7: 159a 148402i bk8: 161a 148586i bk9: 153a 148908i bk10: 163a 149019i bk11: 177a 147929i bk12: 119a 149627i bk13: 126a 148887i bk14: 131a 148463i bk15: 123a 149669i 

------------------------------------------------------------------------

Row_Buffer_Locality = 0.134715
Row_Buffer_Locality_read = 0.125923
Row_Buffer_Locality_write = 0.142445
Bank_Level_Parallism = 2.308687
Bank_Level_Parallism_Col = 1.563421
Bank_Level_Parallism_Ready = 1.055843
write_to_read_ratio_blp_rw_average = 0.545941
GrpLevelPara = 1.408036 

BW Util details:
bwutil = 0.033317 
total_CMD = 156406 
util_bw = 5211 
Wasted_Col = 30643 
Wasted_Row = 20044 
Idle = 100508 

BW Util Bottlenecks: 
RCDc_limit = 22681 
RCDWRc_limit = 20014 
WTRc_limit = 4433 
RTWc_limit = 6603 
CCDLc_limit = 1334 
rwq = 0 
CCDLc_limit_alone = 943 
WTRc_limit_alone = 4243 
RTWc_limit_alone = 6402 

Commands details: 
total_CMD = 156406 
n_nop = 142897 
Read = 2438 
Write = 2087 
L2_Alloc = 0 
L2_WB = 686 
n_act = 4509 
n_pre = 4493 
n_ref = 0 
n_req = 5211 
total_req = 5211 

Dual Bus Interface Util: 
issued_total_row = 9002 
issued_total_col = 5211 
Row_Bus_Util =  0.057555 
CoL_Bus_Util = 0.033317 
Either_Row_CoL_Bus_Util = 0.086371 
Issued_on_Two_Bus_Simul_Util = 0.004501 
issued_two_Eff = 0.052113 
queue_avg = 0.130021 


dram_util_bins: 0 0 0 0 0 0 0 0 0 0
dram_eff_bins: 0 0 0 0 0 0 0 0 0 0
mrqq: max=12 avg=0.130021

========= L2 cache stats =========
L2_cache_bank[0]: Access = 4508, Miss = 2197, Miss_rate = 0.487, Pending_hits = 0, Reservation_fails = 0
L2_cache_bank[1]: Access = 4575, Miss = 2241, Miss_rate = 0.490, Pending_hits = 0, Reservation_fails = 0
L2_cache_bank[2]: Access = 4482, Miss = 2145, Miss_rate = 0.479, Pending_hits = 0, Reservation_fails = 0
L2_cache_bank[3]: Access = 4219, Miss = 2053, Miss_rate = 0.487, Pending_hits = 0, Reservation_fails = 0
L2_cache_bank[4]: Access = 4555, Miss = 2218, Miss_rate = 0.487, Pending_hits = 0, Reservation_fails = 0
L2_cache_bank[5]: Access = 4620, Miss = 2278, Miss_rate = 0.493, Pending_hits = 0, Reservation_fails = 0
L2_cache_bank[6]: Access = 4349, Miss = 2093, Miss_rate = 0.481, Pending_hits = 0, Reservation_fails = 0
L2_cache_bank[7]: Access = 4291, Miss = 2088, Miss_rate = 0.487, Pending_hits = 0, Reservation_fails = 0
L2_cache_bank[8]: Access = 4208, Miss = 1994, Miss_rate = 0.474, Pending_hits = 0, Reservation_fails = 0
L2_cache_bank[9]: Access = 4211, Miss = 2039, Miss_rate = 0.484, Pending_hits = 0, Reservation_fails = 0
L2_cache_bank[10]: Access = 4583, Miss = 2220, Miss_rate = 0.484, Pending_hits = 0, Reservation_fails = 0
L2_cache_bank[11]: Access = 4595, Miss = 2254, Miss_rate = 0.491, Pending_hits = 0, Reservation_fails = 0
L2_cache_bank[12]: Access = 4375, Miss = 2097, Miss_rate = 0.479, Pending_hits = 0, Reservation_fails = 0
L2_cache_bank[13]: Access = 4334, Miss = 2095, Miss_rate = 0.483, Pending_hits = 0, Reservation_fails = 0
L2_cache_bank[14]: Access = 4368, Miss = 2101, Miss_rate = 0.481, Pending_hits = 0, Reservation_fails = 0
L2_cache_bank[15]: Access = 4475, Miss = 2180, Miss_rate = 0.487, Pending_hits = 0, Reservation_fails = 0
L2_cache_bank[16]: Access = 4370, Miss = 2100, Miss_rate = 0.481, Pending_hits = 0, Reservation_fails = 0
L2_cache_bank[17]: Access = 4313, Miss = 2112, Miss_rate = 0.490, Pending_hits = 0, Reservation_fails = 0
L2_cache_bank[18]: Access = 4488, Miss = 2169, Miss_rate = 0.483, Pending_hits = 0, Reservation_fails = 0
L2_cache_bank[19]: Access = 4527, Miss = 2211, Miss_rate = 0.488, Pending_hits = 0, Reservation_fails = 0
L2_cache_bank[20]: Access = 4479, Miss = 2170, Miss_rate = 0.484, Pending_hits = 0, Reservation_fails = 0
L2_cache_bank[21]: Access = 4460, Miss = 2167, Miss_rate = 0.486, Pending_hits = 0, Reservation_fails = 0
L2_cache_bank[22]: Access = 4389, Miss = 2113, Miss_rate = 0.481, Pending_hits = 0, Reservation_fails = 0
L2_cache_bank[23]: Access = 4689, Miss = 2312, Miss_rate = 0.493, Pending_hits = 0, Reservation_fails = 0
L2_cache_bank[24]: Access = 4682, Miss = 2275, Miss_rate = 0.486, Pending_hits = 0, Reservation_fails = 0
L2_cache_bank[25]: Access = 4774, Miss = 2351, Miss_rate = 0.492, Pending_hits = 0, Reservation_fails = 0
L2_cache_bank[26]: Access = 4544, Miss = 2209, Miss_rate = 0.486, Pending_hits = 0, Reservation_fails = 0
L2_cache_bank[27]: Access = 4318, Miss = 2106, Miss_rate = 0.488, Pending_hits = 0, Reservation_fails = 0
L2_cache_bank[28]: Access = 4478, Miss = 2186, Miss_rate = 0.488, Pending_hits = 0, Reservation_fails = 0
L2_cache_bank[29]: Access = 4373, Miss = 2172, Miss_rate = 0.497, Pending_hits = 0, Reservation_fails = 0
L2_cache_bank[30]: Access = 4530, Miss = 2207, Miss_rate = 0.487, Pending_hits = 0, Reservation_fails = 0
L2_cache_bank[31]: Access = 4417, Miss = 2150, Miss_rate = 0.487, Pending_hits = 0, Reservation_fails = 0
L2_cache_bank[32]: Access = 4528, Miss = 2187, Miss_rate = 0.483, Pending_hits = 0, Reservation_fails = 0
L2_cache_bank[33]: Access = 4758, Miss = 2353, Miss_rate = 0.495, Pending_hits = 0, Reservation_fails = 0
L2_cache_bank[34]: Access = 4430, Miss = 2158, Miss_rate = 0.487, Pending_hits = 0, Reservation_fails = 0
L2_cache_bank[35]: Access = 4690, Miss = 2312, Miss_rate = 0.493, Pending_hits = 0, Reservation_fails = 0
L2_cache_bank[36]: Access = 4212, Miss = 2013, Miss_rate = 0.478, Pending_hits = 0, Reservation_fails = 0
L2_cache_bank[37]: Access = 4386, Miss = 2177, Miss_rate = 0.496, Pending_hits = 0, Reservation_fails = 0
L2_cache_bank[38]: Access = 4260, Miss = 2048, Miss_rate = 0.481, Pending_hits = 0, Reservation_fails = 0
L2_cache_bank[39]: Access = 4671, Miss = 2312, Miss_rate = 0.495, Pending_hits = 0, Reservation_fails = 0
L2_cache_bank[40]: Access = 4439, Miss = 2159, Miss_rate = 0.486, Pending_hits = 0, Reservation_fails = 0
L2_cache_bank[41]: Access = 4464, Miss = 2207, Miss_rate = 0.494, Pending_hits = 0, Reservation_fails = 0
L2_cache_bank[42]: Access = 4427, Miss = 2162, Miss_rate = 0.488, Pending_hits = 0, Reservation_fails = 0
L2_cache_bank[43]: Access = 4417, Miss = 2187, Miss_rate = 0.495, Pending_hits = 0, Reservation_fails = 0
L2_cache_bank[44]: Access = 4495, Miss = 2187, Miss_rate = 0.487, Pending_hits = 0, Reservation_fails = 0
L2_cache_bank[45]: Access = 4448, Miss = 2165, Miss_rate = 0.487, Pending_hits = 0, Reservation_fails = 0
L2_cache_bank[46]: Access = 4585, Miss = 2242, Miss_rate = 0.489, Pending_hits = 0, Reservation_fails = 0
L2_cache_bank[47]: Access = 4610, Miss = 2278, Miss_rate = 0.494, Pending_hits = 0, Reservation_fails = 0
L2_cache_bank[48]: Access = 4404, Miss = 2152, Miss_rate = 0.489, Pending_hits = 0, Reservation_fails = 0
L2_cache_bank[49]: Access = 4726, Miss = 2350, Miss_rate = 0.497, Pending_hits = 0, Reservation_fails = 0
L2_cache_bank[50]: Access = 4579, Miss = 2256, Miss_rate = 0.493, Pending_hits = 0, Reservation_fails = 0
L2_cache_bank[51]: Access = 4431, Miss = 2177, Miss_rate = 0.491, Pending_hits = 0, Reservation_fails = 0
L2_cache_bank[52]: Access = 4382, Miss = 2138, Miss_rate = 0.488, Pending_hits = 0, Reservation_fails = 0
L2_cache_bank[53]: Access = 4595, Miss = 2296, Miss_rate = 0.500, Pending_hits = 0, Reservation_fails = 0
L2_cache_bank[54]: Access = 4579, Miss = 2241, Miss_rate = 0.489, Pending_hits = 0, Reservation_fails = 0
L2_cache_bank[55]: Access = 4328, Miss = 2138, Miss_rate = 0.494, Pending_hits = 0, Reservation_fails = 0
L2_cache_bank[56]: Access = 4755, Miss = 2309, Miss_rate = 0.486, Pending_hits = 0, Reservation_fails = 0
L2_cache_bank[57]: Access = 4865, Miss = 2426, Miss_rate = 0.499, Pending_hits = 0, Reservation_fails = 0
L2_cache_bank[58]: Access = 4634, Miss = 2264, Miss_rate = 0.489, Pending_hits = 0, Reservation_fails = 0
L2_cache_bank[59]: Access = 4538, Miss = 2251, Miss_rate = 0.496, Pending_hits = 0, Reservation_fails = 0
L2_cache_bank[60]: Access = 4584, Miss = 2240, Miss_rate = 0.489, Pending_hits = 0, Reservation_fails = 0
L2_cache_bank[61]: Access = 4541, Miss = 2233, Miss_rate = 0.492, Pending_hits = 0, Reservation_fails = 0
L2_cache_bank[62]: Access = 4589, Miss = 2263, Miss_rate = 0.493, Pending_hits = 0, Reservation_fails = 0
L2_cache_bank[63]: Access = 4548, Miss = 2262, Miss_rate = 0.497, Pending_hits = 0, Reservation_fails = 0
L2_total_cache_accesses = 287477
L2_total_cache_misses = 140446
L2_total_cache_miss_rate = 0.4885
L2_total_cache_pending_hits = 0
L2_total_cache_reservation_fails = 0
L2_total_cache_breakdown:
	L2_cache_stats_breakdown[GLOBAL_ACC_R][HIT] = 81495
	L2_cache_stats_breakdown[GLOBAL_ACC_R][HIT_RESERVED] = 0
	L2_cache_stats_breakdown[GLOBAL_ACC_R][MISS] = 67670
	L2_cache_stats_breakdown[GLOBAL_ACC_R][RESERVATION_FAIL] = 0
	L2_cache_stats_breakdown[GLOBAL_ACC_R][SECTOR_MISS] = 7240
	L2_cache_stats_breakdown[LOCAL_ACC_R][HIT] = 0
	L2_cache_stats_breakdown[LOCAL_ACC_R][HIT_RESERVED] = 0
	L2_cache_stats_breakdown[LOCAL_ACC_R][MISS] = 0
	L2_cache_stats_breakdown[LOCAL_ACC_R][RESERVATION_FAIL] = 0
	L2_cache_stats_breakdown[LOCAL_ACC_R][SECTOR_MISS] = 0
	L2_cache_stats_breakdown[CONST_ACC_R][HIT] = 0
	L2_cache_stats_breakdown[CONST_ACC_R][HIT_RESERVED] = 0
	L2_cache_stats_breakdown[CONST_ACC_R][MISS] = 0
	L2_cache_stats_breakdown[CONST_ACC_R][RESERVATION_FAIL] = 0
	L2_cache_stats_breakdown[CONST_ACC_R][SECTOR_MISS] = 0
	L2_cache_stats_breakdown[TEXTURE_ACC_R][HIT] = 0
	L2_cache_stats_breakdown[TEXTURE_ACC_R][HIT_RESERVED] = 0
	L2_cache_stats_breakdown[TEXTURE_ACC_R][MISS] = 0
	L2_cache_stats_breakdown[TEXTURE_ACC_R][RESERVATION_FAIL] = 0
	L2_cache_stats_breakdown[TEXTURE_ACC_R][SECTOR_MISS] = 0
	L2_cache_stats_breakdown[GLOBAL_ACC_W][HIT] = 65536
	L2_cache_stats_breakdown[GLOBAL_ACC_W][HIT_RESERVED] = 0
	L2_cache_stats_breakdown[GLOBAL_ACC_W][MISS] = 0
	L2_cache_stats_breakdown[GLOBAL_ACC_W][RESERVATION_FAIL] = 0
	L2_cache_stats_breakdown[GLOBAL_ACC_W][SECTOR_MISS] = 65536
	L2_cache_stats_breakdown[LOCAL_ACC_W][HIT] = 0
	L2_cache_stats_breakdown[LOCAL_ACC_W][HIT_RESERVED] = 0
	L2_cache_stats_breakdown[LOCAL_ACC_W][MISS] = 0
	L2_cache_stats_breakdown[LOCAL_ACC_W][RESERVATION_FAIL] = 0
	L2_cache_stats_breakdown[LOCAL_ACC_W][SECTOR_MISS] = 0
	L2_cache_stats_breakdown[L1_WRBK_ACC][HIT] = 0
	L2_cache_stats_breakdown[L1_WRBK_ACC][HIT_RESERVED] = 0
	L2_cache_stats_breakdown[L1_WRBK_ACC][MISS] = 0
	L2_cache_stats_breakdown[L1_WRBK_ACC][RESERVATION_FAIL] = 0
	L2_cache_stats_breakdown[L1_WRBK_ACC][SECTOR_MISS] = 0
	L2_cache_stats_breakdown[L2_WRBK_ACC][HIT] = 0
	L2_cache_stats_breakdown[L2_WRBK_ACC][HIT_RESERVED] = 0
	L2_cache_stats_breakdown[L2_WRBK_ACC][MISS] = 0
	L2_cache_stats_breakdown[L2_WRBK_ACC][RESERVATION_FAIL] = 0
	L2_cache_stats_breakdown[L2_WRBK_ACC][SECTOR_MISS] = 0
	L2_cache_stats_breakdown[INST_ACC_R][HIT] = 0
	L2_cache_stats_breakdown[INST_ACC_R][HIT_RESERVED] = 0
	L2_cache_stats_breakdown[INST_ACC_R][MISS] = 0
	L2_cache_stats_breakdown[INST_ACC_R][RESERVATION_FAIL] = 0
	L2_cache_stats_breakdown[INST_ACC_R][SECTOR_MISS] = 0
	L2_cache_stats_breakdown[L1_WR_ALLOC_R][HIT] = 0
	L2_cache_stats_breakdown[L1_WR_ALLOC_R][HIT_RESERVED] = 0
	L2_cache_stats_breakdown[L1_WR_ALLOC_R][MISS] = 0
	L2_cache_stats_breakdown[L1_WR_ALLOC_R][RESERVATION_FAIL] = 0
	L2_cache_stats_breakdown[L1_WR_ALLOC_R][SECTOR_MISS] = 0
	L2_cache_stats_breakdown[L2_WR_ALLOC_R][HIT] = 0
	L2_cache_stats_breakdown[L2_WR_ALLOC_R][HIT_RESERVED] = 0
	L2_cache_stats_breakdown[L2_WR_ALLOC_R][MISS] = 0
	L2_cache_stats_breakdown[L2_WR_ALLOC_R][RESERVATION_FAIL] = 0
	L2_cache_stats_breakdown[L2_WR_ALLOC_R][SECTOR_MISS] = 0
	L2_cache_stats_breakdown[GLOBAL_ACC_R][TOTAL_ACCESS] = 156405
	L2_cache_stats_breakdown[GLOBAL_ACC_W][TOTAL_ACCESS] = 131072
L2_total_cache_reservation_fail_breakdown:
L2_cache_data_port_util = 0.011
L2_cache_fill_port_util = 0.006

icnt_total_pkts_mem_to_simt=287477
icnt_total_pkts_simt_to_mem=287477
LD_mem_lat_dist  0 0 0 0 0 0 0 0 0 0 0 0 0 0 0 0 0 0 0 0 0 0 0 0 0 0 0
ST_mem_lat_dist  0 0 0 0 0 0 0 0 0 0 0 0 0 0 0 0 0 0 0 0 0 0 0 0 0 0 0
----------------------------Interconnect-DETAILS--------------------------------
Req_Network_injected_packets_num = 287477
Req_Network_cycles = 208296
Req_Network_injected_packets_per_cycle =       1.3801 
Req_Network_conflicts_per_cycle =       0.0307
Req_Network_conflicts_per_cycle_util =       0.0448
Req_Bank_Level_Parallism =       2.0148
Req_Network_in_buffer_full_per_cycle =       0.0000
Req_Network_in_buffer_avg_util =       0.0018
Req_Network_out_buffer_full_per_cycle =       0.0000
Req_Network_out_buffer_avg_util =       0.0216

Reply_Network_injected_packets_num = 287477
Reply_Network_cycles = 208296
Reply_Network_injected_packets_per_cycle =        1.3801
Reply_Network_conflicts_per_cycle =        0.6175
Reply_Network_conflicts_per_cycle_util =       0.8966
Reply_Bank_Level_Parallism =       2.0042
Reply_Network_in_buffer_full_per_cycle =       0.0000
Reply_Network_in_buffer_avg_util =       0.0105
Reply_Network_out_buffer_full_per_cycle =       0.0000
Reply_Network_out_buffer_avg_util =       0.0173
----------------------------END-of-Interconnect-DETAILS-------------------------


gpgpu_simulation_time = 0 days, 0 hrs, 4 min, 34 sec (274 sec)
gpgpu_simulation_rate = 118843 (inst/sec)
gpgpu_simulation_rate = 760 (cycle/sec)
gpgpu_silicon_slowdown = 1489473x
GPGPU-Sim: detected inactive GPU simulation thread

total_us: 1 laps, 242905135 us


gen_hists: 1 laps, 242905135.000000 us/lap, 30363141.875000 us/cta

GPGPU-Sim: synchronize waiting for inactive GPU simulation
GPGPU-Sim API: Stream Manager State
GPGPU-Sim: detected inactive GPU simulation thread
GPGPU-Sim: *** exit detected ***
