

        *** GPGPU-Sim Simulator Version 4.0.0  [build gpgpu-sim_git-commit-_modified_0.0] ***


GPGPU-Sim PTX: simulation mode 0 (can change with PTX_SIM_MODE_FUNC environment variable:
               1=functional simulation only, 0=detailed performance simulator)
GPGPU-Sim PTX: overriding embedded ptx with ptx file (PTX_SIM_USE_PTX_FILE is set)
GPGPU-Sim: Configuration options:

-save_embedded_ptx                      0 # saves ptx files embedded in binary as <n>.ptx
-keep                                   0 # keep intermediate files created by GPGPU-Sim when interfacing with external programs
-gpgpu_ptx_save_converted_ptxplus                    0 # Saved converted ptxplus to a file
-gpgpu_occupancy_sm_number                   70 # The SM number to pass to ptxas when getting register usage for computing GPU occupancy. This parameter is required in the config.
-ptx_opcode_latency_int      4,13,4,5,145,21 # Opcode latencies for integers <ADD,MAX,MUL,MAD,DIV,SHFL>Default 1,1,19,25,145,32
-ptx_opcode_latency_fp          4,13,4,5,39 # Opcode latencies for single precision floating points <ADD,MAX,MUL,MAD,DIV>Default 1,1,1,1,30
-ptx_opcode_latency_dp         8,19,8,8,330 # Opcode latencies for double precision floating points <ADD,MAX,MUL,MAD,DIV>Default 8,8,8,8,335
-ptx_opcode_latency_sfu                  100 # Opcode latencies for SFU instructionsDefault 8
-ptx_opcode_latency_tesnor                   64 # Opcode latencies for Tensor instructionsDefault 64
-ptx_opcode_initiation_int          2,2,2,2,8,4 # Opcode initiation intervals for integers <ADD,MAX,MUL,MAD,DIV,SHFL>Default 1,1,4,4,32,4
-ptx_opcode_initiation_fp            2,2,2,2,4 # Opcode initiation intervals for single precision floating points <ADD,MAX,MUL,MAD,DIV>Default 1,1,1,1,5
-ptx_opcode_initiation_dp          4,4,4,4,130 # Opcode initiation intervals for double precision floating points <ADD,MAX,MUL,MAD,DIV>Default 8,8,8,8,130
-ptx_opcode_initiation_sfu                    8 # Opcode initiation intervals for sfu instructionsDefault 8
-ptx_opcode_initiation_tensor                   64 # Opcode initiation intervals for tensor instructionsDefault 64
-cdp_latency         7200,8000,100,12000,1600 # CDP API latency <cudaStreamCreateWithFlags, cudaGetParameterBufferV2_init_perWarp, cudaGetParameterBufferV2_perKernel, cudaLaunchDeviceV2_init_perWarp, cudaLaunchDevicV2_perKernel>Default 7200,8000,100,12000,1600
-network_mode                           2 # Interconnection network mode
-inter_config_file                   mesh # Interconnection network config file
-icnt_in_buffer_limit                  512 # in_buffer_limit
-icnt_out_buffer_limit                  512 # out_buffer_limit
-icnt_subnets                           2 # subnets
-icnt_arbiter_algo                      1 # arbiter_algo
-icnt_verbose                           0 # inct_verbose
-icnt_grant_cycles                      1 # grant_cycles
-gpgpu_ptx_use_cuobjdump                    1 # Use cuobjdump to extract ptx and sass from binaries
-gpgpu_experimental_lib_support                    0 # Try to extract code from cuda libraries [Broken because of unknown cudaGetExportTable]
-checkpoint_option                      0 #  checkpointing flag (0 = no checkpoint)
-checkpoint_kernel                      1 #  checkpointing during execution of which kernel (1- 1st kernel)
-checkpoint_CTA                         0 #  checkpointing after # of CTA (< less than total CTA)
-resume_option                          0 #  resume flag (0 = no resume)
-resume_kernel                          0 #  Resume from which kernel (1= 1st kernel)
-resume_CTA                             0 #  resume from which CTA 
-checkpoint_CTA_t                       0 #  resume from which CTA 
-checkpoint_insn_Y                      0 #  resume from which CTA 
-gpgpu_ptx_convert_to_ptxplus                    0 # Convert SASS (native ISA) to ptxplus and run ptxplus
-gpgpu_ptx_force_max_capability                   70 # Force maximum compute capability
-gpgpu_ptx_inst_debug_to_file                    0 # Dump executed instructions' debug information to file
-gpgpu_ptx_inst_debug_file       inst_debug.txt # Executed instructions' debug output file
-gpgpu_ptx_inst_debug_thread_uid                    1 # Thread UID for executed instructions' debug output
-gpgpu_n_mem_for_l2wb_pcommit                   32 # number of memory modules (e.g. memory controllers) in gpu
-gpgpu_n_sub_partition_per_mchannel_for_l2wb_pcommit                    2 # number of memory subpartition in each memory module
-gpgpu_dl2_bsize_for_l2wb_pcommit                  128 # default 128 bytes
-gpgpu_simd_model                       1 # 1 = post-dominator
-gpgpu_shader_core_pipeline              2048:32 # shader core pipeline config, i.e., {<nthread>:<warpsize>}
-gpgpu_tex_cache:l1  N:4:128:256,L:R:m:N:L,T:512:8,128:2 # per-shader L1 texture cache  (READ-ONLY) config  {<nsets>:<bsize>:<assoc>,<rep>:<wr>:<alloc>:<wr_alloc>,<mshr>:<N>:<merge>,<mq>:<rf>}
-gpgpu_const_cache:l1 N:128:64:8,L:R:f:N:L,S:2:64,4 # per-shader L1 constant memory cache  (READ-ONLY) config  {<nsets>:<bsize>:<assoc>,<rep>:<wr>:<alloc>:<wr_alloc>,<mshr>:<N>:<merge>,<mq>} 
-gpgpu_cache:il1     N:64:128:16,L:R:f:N:L,S:2:48,4 # shader L1 instruction cache config  {<nsets>:<bsize>:<assoc>,<rep>:<wr>:<alloc>:<wr_alloc>,<mshr>:<N>:<merge>,<mq>} 
-gpgpu_cache:dl1     S:1:128:256,L:L:s:N:L,A:256:8,16:0,32 # per-shader L1 data cache config  {<nsets>:<bsize>:<assoc>,<rep>:<wr>:<alloc>:<wr_alloc>,<mshr>:<N>:<merge>,<mq> | none}
-gpgpu_l1_banks                         4 # The number of L1 cache banks
-gpgpu_l1_banks_byte_interleaving                   32 # l1 banks byte interleaving granularity
-gpgpu_l1_banks_hashing_function                    0 # l1 banks hashing function
-gpgpu_l1_latency                      20 # L1 Hit Latency
-gpgpu_smem_latency                    20 # smem Latency
-gpgpu_cache:dl1PrefL1                 none # per-shader L1 data cache config  {<nsets>:<bsize>:<assoc>,<rep>:<wr>:<alloc>:<wr_alloc>,<mshr>:<N>:<merge>,<mq> | none}
-gpgpu_cache:dl1PrefShared                 none # per-shader L1 data cache config  {<nsets>:<bsize>:<assoc>,<rep>:<wr>:<alloc>:<wr_alloc>,<mshr>:<N>:<merge>,<mq> | none}
-gpgpu_gmem_skip_L1D                    0 # global memory access skip L1D cache (implements -Xptxas -dlcm=cg, default=no skip)
-gpgpu_perfect_mem                      0 # enable perfect memory mode (no cache miss)
-n_regfile_gating_group                    4 # group of lanes that should be read/written together)
-gpgpu_clock_gated_reg_file                    0 # enable clock gated reg file for power calculations
-gpgpu_clock_gated_lanes                    0 # enable clock gated lanes for power calculations
-gpgpu_shader_registers                65536 # Number of registers per shader core. Limits number of concurrent CTAs. (default 8192)
-gpgpu_registers_per_block                65536 # Maximum number of registers per CTA. (default 8192)
-gpgpu_ignore_resources_limitation                    0 # gpgpu_ignore_resources_limitation (default 0)
-gpgpu_shader_cta                      32 # Maximum number of concurrent CTAs in shader (default 8)
-gpgpu_num_cta_barriers                   16 # Maximum number of named barriers per CTA (default 16)
-gpgpu_n_clusters                      80 # number of processing clusters
-gpgpu_n_cores_per_cluster                    1 # number of simd cores per cluster
-gpgpu_n_cluster_ejection_buffer_size                   32 # number of packets in ejection buffer
-gpgpu_n_ldst_response_buffer_size                    2 # number of response packets in ld/st unit ejection buffer
-gpgpu_shmem_per_block                65536 # Size of shared memory per thread block or CTA (default 48kB)
-gpgpu_shmem_size                   98304 # Size of shared memory per shader core (default 16kB)
-gpgpu_adaptive_cache_config            536870913 # adaptive_cache_config
-gpgpu_shmem_sizeDefault                98304 # Size of shared memory per shader core (default 16kB)
-gpgpu_shmem_size_PrefL1                16384 # Size of shared memory per shader core (default 16kB)
-gpgpu_shmem_size_PrefShared                16384 # Size of shared memory per shader core (default 16kB)
-gpgpu_shmem_num_banks                   32 # Number of banks in the shared memory in each shader core (default 16)
-gpgpu_shmem_limited_broadcast                    0 # Limit shared memory to do one broadcast per cycle (default on)
-gpgpu_shmem_warp_parts                    1 # Number of portions a warp is divided into for shared memory bank conflict check 
-gpgpu_mem_unit_ports                    1 # The number of memory transactions allowed per core cycle
-gpgpu_shmem_warp_parts                    1 # Number of portions a warp is divided into for shared memory bank conflict check 
-gpgpu_warpdistro_shader                   -1 # Specify which shader core to collect the warp size distribution from
-gpgpu_warp_issue_shader                    0 # Specify which shader core to collect the warp issue distribution from
-gpgpu_local_mem_map                    1 # Mapping from local memory space address to simulated GPU physical address space (default = enabled)
-gpgpu_num_reg_banks                   16 # Number of register banks (default = 8)
-gpgpu_reg_bank_use_warp_id                    0 # Use warp ID in mapping registers to banks (default = off)
-gpgpu_sub_core_model                    1 # Sub Core Volta/Pascal model (default = off)
-gpgpu_enable_specialized_operand_collector                    0 # enable_specialized_operand_collector
-gpgpu_operand_collector_num_units_sp                    4 # number of collector units (default = 4)
-gpgpu_operand_collector_num_units_dp                    0 # number of collector units (default = 0)
-gpgpu_operand_collector_num_units_sfu                    4 # number of collector units (default = 4)
-gpgpu_operand_collector_num_units_int                    0 # number of collector units (default = 0)
-gpgpu_operand_collector_num_units_tensor_core                    4 # number of collector units (default = 4)
-gpgpu_operand_collector_num_units_mem                    2 # number of collector units (default = 2)
-gpgpu_operand_collector_num_units_gen                    8 # number of collector units (default = 0)
-gpgpu_operand_collector_num_in_ports_sp                    1 # number of collector unit in ports (default = 1)
-gpgpu_operand_collector_num_in_ports_dp                    0 # number of collector unit in ports (default = 0)
-gpgpu_operand_collector_num_in_ports_sfu                    1 # number of collector unit in ports (default = 1)
-gpgpu_operand_collector_num_in_ports_int                    0 # number of collector unit in ports (default = 0)
-gpgpu_operand_collector_num_in_ports_tensor_core                    1 # number of collector unit in ports (default = 1)
-gpgpu_operand_collector_num_in_ports_mem                    1 # number of collector unit in ports (default = 1)
-gpgpu_operand_collector_num_in_ports_gen                    8 # number of collector unit in ports (default = 0)
-gpgpu_operand_collector_num_out_ports_sp                    1 # number of collector unit in ports (default = 1)
-gpgpu_operand_collector_num_out_ports_dp                    0 # number of collector unit in ports (default = 0)
-gpgpu_operand_collector_num_out_ports_sfu                    1 # number of collector unit in ports (default = 1)
-gpgpu_operand_collector_num_out_ports_int                    0 # number of collector unit in ports (default = 0)
-gpgpu_operand_collector_num_out_ports_tensor_core                    1 # number of collector unit in ports (default = 1)
-gpgpu_operand_collector_num_out_ports_mem                    1 # number of collector unit in ports (default = 1)
-gpgpu_operand_collector_num_out_ports_gen                    8 # number of collector unit in ports (default = 0)
-gpgpu_coalesce_arch                   60 # Coalescing arch (GT200 = 13, Fermi = 20)
-gpgpu_num_sched_per_core                    4 # Number of warp schedulers per core
-gpgpu_max_insn_issue_per_warp                    1 # Max number of instructions that can be issued per warp in one cycle by scheduler (either 1 or 2)
-gpgpu_dual_issue_diff_exec_units                    1 # should dual issue use two different execution unit resources (Default = 1)
-gpgpu_simt_core_sim_order                    1 # Select the simulation order of cores in a cluster (0=Fix, 1=Round-Robin)
-gpgpu_pipeline_widths 4,4,4,4,4,4,4,4,4,4,8,4,4 # Pipeline widths ID_OC_SP,ID_OC_DP,ID_OC_INT,ID_OC_SFU,ID_OC_MEM,OC_EX_SP,OC_EX_DP,OC_EX_INT,OC_EX_SFU,OC_EX_MEM,EX_WB,ID_OC_TENSOR_CORE,OC_EX_TENSOR_CORE
-gpgpu_tensor_core_avail                    1 # Tensor Core Available (default=0)
-gpgpu_num_sp_units                     4 # Number of SP units (default=1)
-gpgpu_num_dp_units                     4 # Number of DP units (default=0)
-gpgpu_num_int_units                    4 # Number of INT units (default=0)
-gpgpu_num_sfu_units                    4 # Number of SF units (default=1)
-gpgpu_num_tensor_core_units                    4 # Number of tensor_core units (default=1)
-gpgpu_num_mem_units                    1 # Number if ldst units (default=1) WARNING: not hooked up to anything
-gpgpu_scheduler                      gto # Scheduler configuration: < lrr | gto | two_level_active > If two_level_active:<num_active_warps>:<inner_prioritization>:<outer_prioritization>For complete list of prioritization values see shader.h enum scheduler_prioritization_typeDefault: gto
-gpgpu_concurrent_kernel_sm                    0 # Support concurrent kernels on a SM (default = disabled)
-gpgpu_perfect_inst_const_cache                    1 # perfect inst and const cache mode, so all inst and const hits in the cache(default = disabled)
-gpgpu_inst_fetch_throughput                    4 # the number of fetched intruction per warp each cycle
-gpgpu_reg_file_port_throughput                    2 # the number ports of the register file
-specialized_unit_1         0,4,4,4,4,BRA # specialized unit config {<enabled>,<num_units>:<latency>:<initiation>,<ID_OC_SPEC>:<OC_EX_SPEC>,<NAME>}
-specialized_unit_2         0,4,4,4,4,BRA # specialized unit config {<enabled>,<num_units>:<latency>:<initiation>,<ID_OC_SPEC>:<OC_EX_SPEC>,<NAME>}
-specialized_unit_3         0,4,4,4,4,BRA # specialized unit config {<enabled>,<num_units>:<latency>:<initiation>,<ID_OC_SPEC>:<OC_EX_SPEC>,<NAME>}
-specialized_unit_4         0,4,4,4,4,BRA # specialized unit config {<enabled>,<num_units>:<latency>:<initiation>,<ID_OC_SPEC>:<OC_EX_SPEC>,<NAME>}
-specialized_unit_5         0,4,4,4,4,BRA # specialized unit config {<enabled>,<num_units>:<latency>:<initiation>,<ID_OC_SPEC>:<OC_EX_SPEC>,<NAME>}
-specialized_unit_6         0,4,4,4,4,BRA # specialized unit config {<enabled>,<num_units>:<latency>:<initiation>,<ID_OC_SPEC>:<OC_EX_SPEC>,<NAME>}
-specialized_unit_7         0,4,4,4,4,BRA # specialized unit config {<enabled>,<num_units>:<latency>:<initiation>,<ID_OC_SPEC>:<OC_EX_SPEC>,<NAME>}
-specialized_unit_8         0,4,4,4,4,BRA # specialized unit config {<enabled>,<num_units>:<latency>:<initiation>,<ID_OC_SPEC>:<OC_EX_SPEC>,<NAME>}
-gpgpu_perf_sim_memcpy                    1 # Fill the L2 cache on memcpy
-gpgpu_simple_dram_model                    0 # simple_dram_model with fixed latency and BW
-gpgpu_dram_scheduler                    1 # 0 = fifo, 1 = FR-FCFS (defaul)
-gpgpu_dram_partition_queues          64:64:64:64 # i2$:$2d:d2$:$2i
-l2_ideal                               0 # Use a ideal L2 cache that always hit
-gpgpu_cache:dl2     S:32:128:24,L:B:m:L:P,A:192:4,32:0,32 # unified banked L2 data cache config  {<nsets>:<bsize>:<assoc>,<rep>:<wr>:<alloc>:<wr_alloc>,<mshr>:<N>:<merge>,<mq>}
-gpgpu_cache:dl2_texture_only                    0 # L2 cache used for texture only
-gpgpu_n_mem                           32 # number of memory modules (e.g. memory controllers) in gpu
-gpgpu_n_sub_partition_per_mchannel                    2 # number of memory subpartition in each memory module
-gpgpu_n_mem_per_ctrlr                    1 # number of memory chips per memory controller
-gpgpu_memlatency_stat                   14 # track and display latency statistics 0x2 enables MC, 0x4 enables queue logs
-gpgpu_frfcfs_dram_sched_queue_size                   64 # 0 = unlimited (default); # entries per chip
-gpgpu_dram_return_queue_size                  192 # 0 = unlimited (default); # entries per chip
-gpgpu_dram_buswidth                   16 # default = 4 bytes (8 bytes per cycle at DDR)
-gpgpu_dram_burst_length                    2 # Burst length of each DRAM request (default = 4 data bus cycle)
-dram_data_command_freq_ratio                    2 # Frequency ratio between DRAM data bus and command bus (default = 2 times, i.e. DDR)
-gpgpu_dram_timing_opt nbk=16:CCD=1:RRD=3:RCD=12:RAS=28:RP=12:RC=40: CL=12:WL=2:CDLR=3:WR=10:nbkgrp=4:CCDL=2:RTPL=3 # DRAM timing parameters = {nbk:tCCD:tRRD:tRCD:tRAS:tRP:tRC:CL:WL:tCDLR:tWR:nbkgrp:tCCDL:tRTPL}
-gpgpu_l2_rop_latency                  160 # ROP queue latency (default 85)
-dram_latency                         200 # DRAM latency (default 30)
-dram_write_latency                   600 # DRAM write latency (default 100)
-dram_dual_bus_interface                    1 # dual_bus_interface (default = 0) 
-dram_bnk_indexing_policy                    0 # dram_bnk_indexing_policy (0 = normal indexing, 1 = Xoring with the higher bits) (Default = 0)
-dram_bnkgrp_indexing_policy                    1 # dram_bnkgrp_indexing_policy (0 = take higher bits, 1 = take lower bits) (Default = 0)
-dram_seperate_write_queue_enable                    0 # Seperate_Write_Queue_Enable
-dram_write_queue_size             32:28:16 # Write_Queue_Size
-dram_elimnate_rw_turnaround                    0 # elimnate_rw_turnaround i.e set tWTR and tRTW = 0
-icnt_flit_size                        40 # icnt_flit_size
-gpgpu_mem_addr_mapping dramid@8;00000000.00000000.00000000.00000000.0000RRRR.RRRRRRRR.RBBBCCCB.CCCSSSSS # mapping memory address to dram model {dramid@<start bit>;<memory address map>}
-gpgpu_mem_addr_test                    0 # run sweep test to check address mapping for aliased address
-gpgpu_mem_address_mask                    1 # 0 = old addressing mask, 1 = new addressing mask, 2 = new add. mask + flipped bank sel and chip sel bits
-gpgpu_memory_partition_indexing                    0 # 0 = no indexing, 1 = bitwise xoring, 2 = IPoly, 3 = custom indexing
-gpuwattch_xml_file         gpuwattch.xml # GPUWattch XML file
-power_simulation_enabled                    0 # Turn on power simulator (1=On, 0=Off)
-power_per_cycle_dump                    0 # Dump detailed power output each cycle
-power_trace_enabled                    0 # produce a file for the power trace (1=On, 0=Off)
-power_trace_zlevel                     6 # Compression level of the power trace output log (0=no comp, 9=highest)
-steady_power_levels_enabled                    0 # produce a file for the steady power levels (1=On, 0=Off)
-steady_state_definition                  8:4 # allowed deviation:number of samples
-gpgpu_max_cycle                        0 # terminates gpu simulation early (0 = no limit)
-gpgpu_max_insn                         0 # terminates gpu simulation early (0 = no limit)
-gpgpu_max_cta                          0 # terminates gpu simulation early (0 = no limit)
-gpgpu_max_completed_cta                    0 # terminates gpu simulation early (0 = no limit)
-gpgpu_runtime_stat                   500 # display runtime statistics such as dram utilization {<freq>:<flag>}
-liveness_message_freq                    1 # Minimum number of seconds between simulation liveness messages (0 = always print)
-gpgpu_compute_capability_major                    7 # Major compute capability version number
-gpgpu_compute_capability_minor                    0 # Minor compute capability version number
-gpgpu_flush_l1_cache                    1 # Flush L1 cache at the end of each kernel call
-gpgpu_flush_l2_cache                    0 # Flush L2 cache at the end of each kernel call
-gpgpu_deadlock_detect                    1 # Stop the simulation at deadlock (1=on (default), 0=off)
-gpgpu_ptx_instruction_classification                    0 # if enabled will classify ptx instruction types per kernel (Max 255 kernels now)
-gpgpu_ptx_sim_mode                     0 # Select between Performance (default) or Functional simulation (1)
-gpgpu_clock_domains 1132.0:1132.0:1132.0:850.0 # Clock Domain Frequencies in MhZ {<Core Clock>:<ICNT Clock>:<L2 Clock>:<DRAM Clock>}
-gpgpu_max_concurrent_kernel                    8 # maximum kernels that can run concurrently on GPU
-gpgpu_cflog_interval                    0 # Interval between each snapshot in control flow logger
-visualizer_enabled               1d1fd91f79a04be419695e7e30b34791  /home/pli11/Desktop/re_test/megakv/insert/run
Extracting PTX file and ptxas options    1: run.1.sm_70.ptx -arch=sm_70
      0 # Turn on visualizer output (1=On, 0=Off)
-visualizer_outputfile                 NULL # Specifies the output log file for visualizer
-visualizer_zlevel                      6 # Compression level of the visualizer output log (0=no comp, 9=highest)
-gpgpu_stack_size_limit                 1024 # GPU thread stack size
-gpgpu_heap_size_limit              8388608 # GPU malloc heap size 
-gpgpu_runtime_sync_depth_limit                    2 # GPU device runtime synchronize depth
-gpgpu_runtime_pending_launch_count_limit                 2048 # GPU device runtime pending launch count
-trace_enabled                          0 # Turn on traces
-trace_components                    none # comma seperated list of traces to enable. Complete list found in trace_streams.tup. Default none
-trace_sampling_core                    0 # The core which is printed using CORE_DPRINTF. Default 0
-trace_sampling_memory_partition                   -1 # The memory partition which is printed using MEMPART_DPRINTF. Default -1 (i.e. all)
-enable_ptx_file_line_stats                    1 # Turn on PTX source line statistic profiling. (1 = On)
-ptx_line_stats_filename gpgpu_inst_stats.txt # Output file for PTX source line statistics.
-gpgpu_kernel_launch_latency                 5000 # Kernel launch latency in cycles. Default: 0
-gpgpu_cdp_enabled                      0 # Turn on CDP
-gpgpu_TB_launch_latency                    0 # thread block launch latency in cycles. Default: 0
DRAM Timing Options:
nbk                                    16 # number of banks
CCD                                     1 # column to column delay
RRD                                     3 # minimal delay between activation of rows in different banks
RCD                                    12 # row to column delay
RAS                                    28 # time needed to activate row
RP                                     12 # time needed to precharge (deactivate) row
RC                                     40 # row cycle time
CDLR                                    3 # switching from write to read (changes tWTR)
WR                                     10 # last data-in to row precharge
CL                                     12 # CAS latency
WL                                      2 # Write latency
nbkgrp                                  4 # number of bank groups
CCDL                                    2 # column to column delay between accesses to different bank groups
RTPL                                    3 # read to precharge delay between accesses to different bank groups
Total number of memory sub partition = 64
addr_dec_mask[CHIP]  = 0000000000001f00 	high:13 low:8
addr_dec_mask[BK]    = 00000000000e2000 	high:20 low:13
addr_dec_mask[ROW]   = 00000001fff00000 	high:33 low:20
addr_dec_mask[COL]   = 000000000001c0ff 	high:17 low:0
addr_dec_mask[BURST] = 000000000000001f 	high:5 low:0
sub_partition_id_mask = 0000000000002000
GPGPU-Sim uArch: clock freqs: 1132000000.000000:1132000000.000000:1132000000.000000:850000000.000000
GPGPU-Sim uArch: clock periods: 0.00000000088339222615:0.00000000088339222615:0.00000000088339222615:0.00000000117647058824
*** Initializing Memory Statistics ***
GPGPU-Sim uArch: performance model initialization complete.
self exe links to: /home/pli11/Desktop/re_test/megakv/insert/run
self exe links to: /home/pli11/Desktop/re_test/megakv/insert/run
10.1
GPGPU-Sim PTX: __cudaRegisterFatBinary, fat_cubin_handle = 1, filename=default
self exe links to: /home/pli11/Desktop/re_test/megakv/insert/run
Running md5sum using "md5sum /home/pli11/Desktop/re_test/megakv/insert/run "
self exe links to: /home/pli11/Desktop/re_test/megakv/insert/run
Extracting specific PTX file named run.1.sm_70.ptx 
GPGPU-Sim PTX: __cudaRegisterFunction _Z18hash_insert_cuckooP8bucket_sPP7ielem_sPi : hostFun 0x0x4030de, fat_cubin_handle = 1
GPGPU-Sim PTX: Parsing run.1.sm_70.ptx
GPGPU-Sim PTX: allocating stack frame region for .param "func_retval0" from 0x0 to 0x4
GPGPU-Sim PTX: allocating stack frame region for .param "vprintf_param_0" from 0x4 to 0xc
GPGPU-Sim PTX: allocating stack frame region for .param "vprintf_param_1" from 0xc to 0x14
GPGPU-Sim PTX: allocating global region for "$str" from 0x100 to 0x114 (global memory space)
GPGPU-Sim PTX: allocating stack frame region for .param "param0" from 0x0 to 0x8
GPGPU-Sim PTX: allocating stack frame region for .param "param1" from 0x8 to 0x10
GPGPU-Sim PTX: allocating stack frame region for .param "retval0" from 0x10 to 0x14
GPGPU-Sim PTX: instruction assembly for function '_Z23hash_insert_cuckoo_nvmbP8bucket_sPP7ielem_sPi'...   done.
GPGPU-Sim PTX: allocating stack frame region for .param "param0" from 0x0 to 0x8
GPGPU-Sim PTX: allocating stack frame region for .param "param1" from 0x8 to 0x10
GPGPU-Sim PTX: allocating stack frame region for .param "retval0" from 0x10 to 0x14
GPGPU-Sim PTX: instruction assembly for function '_Z23hash_insert_cuckoo_nvmoP8bucket_sPP7ielem_sPi'...   done.
GPGPU-Sim PTX: allocating stack frame region for .param "param0" from 0x0 to 0x8
GPGPU-Sim PTX: allocating stack frame region for .param "param1" from 0x8 to 0x10
GPGPU-Sim PTX: allocating stack frame region for .param "retval0" from 0x10 to 0x14
GPGPU-Sim PTX: instruction assembly for function '_Z23hash_insert_cuckoo_nvmuP8bucket_sPP7ielem_sPi'...   done.
GPGPU-Sim PTX: instruction assembly for function '_Z11kernel_l2wbv'...   done.
GPGPU-Sim PTX: instruction assembly for function '_Z15kernel_l2wb_pctv'...   done.
GPGPU-Sim PTX: allocating stack frame region for .param "param0" from 0x0 to 0x8
GPGPU-Sim PTX: allocating stack frame region for .param "param1" from 0x8 to 0x10
GPGPU-Sim PTX: allocating stack frame region for .param "retval0" from 0x10 to 0x14
GPGPU-Sim PTX: instruction assembly for function '_Z18hash_insert_cuckooP8bucket_sPP7ielem_sPi'...   done.
GPGPU-Sim PTX: finished parsing EMBEDDED .ptx file run.1.sm_70.ptx
GPGPU-Sim PTX: loading globals with explicit initializers... 
GPGPU-Sim PTX:     initializing '$str' ...  wrote 20 bytes
GPGPU-Sim PTX: finished loading globals (20 bytes total).
GPGPU-Sim PTX: loading constants with explicit initializers...  done.
GPGPU-Sim PTX: Loading PTXInfo from run.1.sm_70.ptx
GPGPU-Sim PTX: Kernel '_Z18hash_insert_cuckooP8bucket_sPP7ielem_sPi' : regs=32, lmem=0, smem=0, cmem=376
GPGPU-Sim PTX: Kernel '_Z15kernel_l2wb_pctv' : regs=8, lmem=0, smem=0, cmem=352
GPGPU-Sim PTX: Kernel '_Z11kernel_l2wbv' : regs=8, lmem=0, smem=0, cmem=352
GPGPU-Sim PTX: Kernel '_Z23hash_insert_cuckoo_nvmuP8bucket_sPP7ielem_sPi' : regs=35, lmem=0, smem=0, cmem=376
GPGPU-Sim PTX: Kernel '_Z23hash_insert_cuckoo_nvmoP8bucket_sPP7ielem_sPi' : regs=34, lmem=0, smem=0, cmem=376
GPGPU-Sim PTX: Kernel '_Z23hash_insert_cuckoo_nvmbP8bucket_sPP7ielem_sPi' : regs=33, lmem=0, smem=0, cmem=376
GPGPU-Sim PTX: __cudaRegisterFunction _Z15kernel_l2wb_pctv : hostFun 0x0x402fa2, fat_cubin_handle = 1
GPGPU-Sim PTX: __cudaRegisterFunction _Z11kernel_l2wbv : hostFun 0x0x402ea8, fat_cubin_handle = 1
GPGPU-Sim PTX: __cudaRegisterFunction _Z23hash_insert_cuckoo_nvmuP8bucket_sPP7ielem_sPi : hostFun 0x0x402d8c, fat_cubin_handle = 1
GPGPU-Sim PTX: __cudaRegisterFunction _Z23hash_insert_cuckoo_nvmoP8bucket_sPP7ielem_sPi : hostFun 0x0x402c2e, fat_cubin_handle = 1
GPGPU-Sim PTX: __cudaRegisterFunction _Z23hash_insert_cuckoo_nvmbP8bucket_sPP7ielem_sPi : hostFun 0x0x402ad0, fat_cubin_handle = 1
GPGPU-Sim PTX: cudaStreamCreate
GPGPU-Sim: synchronize waiting for inactive GPU simulation
GPGPU-Sim API: Stream Manager State
GPGPU-Sim: detected inactive GPU simulation thread
GPGPU-Sim: synchronize waiting for inactive GPU simulation
GPGPU-Sim API: Stream Manager State
GPGPU-Sim API:    stream 1 has 2 operations
GPGPU-Sim API:       0 :  stream operation memcpy host-to-device
GPGPU-Sim API:       1 :  stream operation memcpy host-to-device
GPGPU-Sim: detected inactive GPU simulation thread
GPGPU-Sim PTX: Setting up arguments for 8 bytes starting at 0x7ffe86e20de8..
GPGPU-Sim PTX: Setting up arguments for 8 bytes starting at 0x7ffe86e20de0..
GPGPU-Sim PTX: Setting up arguments for 8 bytes starting at 0x7ffe86e20dd8..

GPGPU-Sim PTX: cudaLaunch for 0x0x4030de (mode=performance simulation) on stream 1
GPGPU-Sim PTX: finding reconvergence points for '_Z18hash_insert_cuckooP8bucket_sPP7ielem_sPi'...
GPGPU-Sim PTX: Finding dominators for '_Z18hash_insert_cuckooP8bucket_sPP7ielem_sPi'...
GPGPU-Sim PTX: Finding immediate dominators for '_Z18hash_insert_cuckooP8bucket_sPP7ielem_sPi'...
GPGPU-Sim PTX: Finding postdominators for '_Z18hash_insert_cuckooP8bucket_sPP7ielem_sPi'...
GPGPU-Sim PTX: Finding immediate postdominators for '_Z18hash_insert_cuckooP8bucket_sPP7ielem_sPi'...
GPGPU-Sim PTX: pre-decoding instructions for '_Z18hash_insert_cuckooP8bucket_sPP7ielem_sPi'...
GPGPU-Sim PTX: reconvergence points for _Z18hash_insert_cuckooP8bucket_sPP7ielem_sPi...
GPGPU-Sim PTX:  1 (potential) branch divergence @  PC=0x1bb0 (run.1.sm_70.ptx:1387) @%p2 bra BB5_36;
GPGPU-Sim PTX:    immediate post dominator      @  PC=0x2248 (run.1.sm_70.ptx:1675) ret;
GPGPU-Sim PTX:  2 (potential) branch divergence @  PC=0x1bf0 (run.1.sm_70.ptx:1396) bra.uni BB5_2;
GPGPU-Sim PTX:    immediate post dominator      @  PC=0x1fa0 (run.1.sm_70.ptx:1553) cvt.s64.s32%rd5, %r121;
GPGPU-Sim PTX:  3 (potential) branch divergence @  PC=0x1c70 (run.1.sm_70.ptx:1414) @%p17 bra BB5_32;
GPGPU-Sim PTX:    immediate post dominator      @  PC=0x2228 (run.1.sm_70.ptx:1669) cvt.u32.u64%r119, %rd5;
GPGPU-Sim PTX:  4 (potential) branch divergence @  PC=0x1cc8 (run.1.sm_70.ptx:1427) @%p20 bra BB5_16;
GPGPU-Sim PTX:    immediate post dominator      @  PC=0x1d60 (run.1.sm_70.ptx:1453) bar.sync 0;
GPGPU-Sim PTX:  5 (potential) branch divergence @  PC=0x1cd0 (run.1.sm_70.ptx:1428) bra.uni BB5_15;
GPGPU-Sim PTX:    immediate post dominator      @  PC=0x1d30 (run.1.sm_70.ptx:1445) neg.s32 %r97, %r30;
GPGPU-Sim PTX:  6 (potential) branch divergence @  PC=0x1cf0 (run.1.sm_70.ptx:1434) @%p21 bra BB5_18;
GPGPU-Sim PTX:    immediate post dominator      @  PC=0x1d60 (run.1.sm_70.ptx:1453) bar.sync 0;
GPGPU-Sim PTX:  7 (potential) branch divergence @  PC=0x1d28 (run.1.sm_70.ptx:1442) bra.uni BB5_18;
GPGPU-Sim PTX:    immediate post dominator      @  PC=0x1d60 (run.1.sm_70.ptx:1453) bar.sync 0;
GPGPU-Sim PTX:  8 (potential) branch divergence @  PC=0x1d68 (run.1.sm_70.ptx:1454) @%p20 bra BB5_20;
GPGPU-Sim PTX:    immediate post dominator      @  PC=0x1da8 (run.1.sm_70.ptx:1470) bar.sync 0;
GPGPU-Sim PTX:  9 (potential) branch divergence @  PC=0x1d70 (run.1.sm_70.ptx:1455) bra.uni BB5_19;
GPGPU-Sim PTX:    immediate post dominator      @  PC=0x1d90 (run.1.sm_70.ptx:1463) setp.ne.s32%p23, %r1, %r139;
GPGPU-Sim PTX: 10 (potential) branch divergence @  PC=0x1d80 (run.1.sm_70.ptx:1459) @%p24 bra BB5_22;
GPGPU-Sim PTX:    immediate post dominator      @  PC=0x1da8 (run.1.sm_70.ptx:1470) bar.sync 0;
GPGPU-Sim PTX: 11 (potential) branch divergence @  PC=0x1d88 (run.1.sm_70.ptx:1460) bra.uni BB5_21;
GPGPU-Sim PTX:    immediate post dominator      @  PC=0x1da0 (run.1.sm_70.ptx:1467) st.global.u32 [%rd57], %r25;
GPGPU-Sim PTX: 12 (potential) branch divergence @  PC=0x1d98 (run.1.sm_70.ptx:1464) @%p23 bra BB5_22;
GPGPU-Sim PTX:    immediate post dominator      @  PC=0x1da8 (run.1.sm_70.ptx:1470) bar.sync 0;
GPGPU-Sim PTX: 13 (potential) branch divergence @  PC=0x1de0 (run.1.sm_70.ptx:1477) @%p20 bra BB5_26;
GPGPU-Sim PTX:    immediate post dominator      @  PC=0x2228 (run.1.sm_70.ptx:1669) cvt.u32.u64%r119, %rd5;
GPGPU-Sim PTX: 14 (potential) branch divergence @  PC=0x1df8 (run.1.sm_70.ptx:1481) @%p25 bra BB5_14;
GPGPU-Sim PTX:    immediate post dominator      @  PC=0x2228 (run.1.sm_70.ptx:1669) cvt.u32.u64%r119, %rd5;
GPGPU-Sim PTX: 15 (potential) branch divergence @  PC=0x1e00 (run.1.sm_70.ptx:1482) bra.uni BB5_24;
GPGPU-Sim PTX:    immediate post dominator      @  PC=0x1f48 (run.1.sm_70.ptx:1536) setp.ne.s32%p26, %r1, %r139;
GPGPU-Sim PTX: 16 (potential) branch divergence @  PC=0x1e10 (run.1.sm_70.ptx:1486) @%p27 bra BB5_28;
GPGPU-Sim PTX:    immediate post dominator      @  PC=0x2228 (run.1.sm_70.ptx:1669) cvt.u32.u64%r119, %rd5;
GPGPU-Sim PTX: 17 (potential) branch divergence @  PC=0x1e18 (run.1.sm_70.ptx:1487) bra.uni BB5_27;
GPGPU-Sim PTX:    immediate post dominator      @  PC=0x1f60 (run.1.sm_70.ptx:1541) setp.ne.s32%p28, %r1, %r139;
GPGPU-Sim PTX: 18 (potential) branch divergence @  PC=0x1e30 (run.1.sm_70.ptx:1492) @%p31 bra BB5_35;
GPGPU-Sim PTX:    immediate post dominator      @  PC=0x2228 (run.1.sm_70.ptx:1669) cvt.u32.u64%r119, %rd5;
GPGPU-Sim PTX: 19 (potential) branch divergence @  PC=0x1e40 (run.1.sm_70.ptx:1495) @%p32 bra BB5_31;
GPGPU-Sim PTX:    immediate post dominator      @  PC=0x1e50 (run.1.sm_70.ptx:1500) xor.b32 %r106, %r36, %r12;
GPGPU-Sim PTX: 20 (potential) branch divergence @  PC=0x1ed0 (run.1.sm_70.ptx:1516) @%p35 bra BB5_14;
GPGPU-Sim PTX:    immediate post dominator      @  PC=0x2228 (run.1.sm_70.ptx:1669) cvt.u32.u64%r119, %rd5;
GPGPU-Sim PTX: 21 (potential) branch divergence @  PC=0x1f10 (run.1.sm_70.ptx:1526) @%p36 bra BB5_35;
GPGPU-Sim PTX:    immediate post dominator      @  PC=0x2228 (run.1.sm_70.ptx:1669) cvt.u32.u64%r119, %rd5;
GPGPU-Sim PTX: 22 (potential) branch divergence @  PC=0x1f40 (run.1.sm_70.ptx:1533) bra.uni BB5_35;
GPGPU-Sim PTX:    immediate post dominator      @  PC=0x2228 (run.1.sm_70.ptx:1669) cvt.u32.u64%r119, %rd5;
GPGPU-Sim PTX: 23 (potential) branch divergence @  PC=0x1f50 (run.1.sm_70.ptx:1537) @%p26 bra BB5_35;
GPGPU-Sim PTX:    immediate post dominator      @  PC=0x2228 (run.1.sm_70.ptx:1669) cvt.u32.u64%r119, %rd5;
GPGPU-Sim PTX: 24 (potential) branch divergence @  PC=0x1f58 (run.1.sm_70.ptx:1538) bra.uni BB5_25;
GPGPU-Sim PTX:    immediate post dominator      @  PC=0x1f88 (run.1.sm_70.ptx:1548) st.global.u32 [%rd14], %r27;
GPGPU-Sim PTX: 25 (potential) branch divergence @  PC=0x1f80 (run.1.sm_70.ptx:1545) @%p30 bra BB5_35;
GPGPU-Sim PTX:    immediate post dominator      @  PC=0x2228 (run.1.sm_70.ptx:1669) cvt.u32.u64%r119, %rd5;
GPGPU-Sim PTX: 26 (potential) branch divergence @  PC=0x1f98 (run.1.sm_70.ptx:1550) bra.uni BB5_35;
GPGPU-Sim PTX:    immediate post dominator      @  PC=0x2228 (run.1.sm_70.ptx:1669) cvt.u32.u64%r119, %rd5;
GPGPU-Sim PTX: 27 (potential) branch divergence @  PC=0x1fd8 (run.1.sm_70.ptx:1560) @%p3 bra BB5_34;
GPGPU-Sim PTX:    immediate post dominator      @  PC=0x2228 (run.1.sm_70.ptx:1669) cvt.u32.u64%r119, %rd5;
GPGPU-Sim PTX: 28 (potential) branch divergence @  PC=0x1fe0 (run.1.sm_70.ptx:1561) bra.uni BB5_3;
GPGPU-Sim PTX:    immediate post dominator      @  PC=0x2028 (run.1.sm_70.ptx:1589) ld.u32 %r12, [%rd6+4];
GPGPU-Sim PTX: 29 (potential) branch divergence @  PC=0x2020 (run.1.sm_70.ptx:1586) bra.uni BB5_35;
GPGPU-Sim PTX:    immediate post dominator      @  PC=0x2228 (run.1.sm_70.ptx:1669) cvt.u32.u64%r119, %rd5;
GPGPU-Sim PTX: 30 (potential) branch divergence @  PC=0x2098 (run.1.sm_70.ptx:1603) @%p6 bra BB5_6;
GPGPU-Sim PTX:    immediate post dominator      @  PC=0x2228 (run.1.sm_70.ptx:1669) cvt.u32.u64%r119, %rd5;
GPGPU-Sim PTX: 31 (potential) branch divergence @  PC=0x20a0 (run.1.sm_70.ptx:1604) bra.uni BB5_4;
GPGPU-Sim PTX:    immediate post dominator      @  PC=0x21d8 (run.1.sm_70.ptx:1655) neg.s32 %r59, %r13;
GPGPU-Sim PTX: 32 (potential) branch divergence @  PC=0x2120 (run.1.sm_70.ptx:1624) @%p10 bra BB5_10;
GPGPU-Sim PTX:    immediate post dominator      @  PC=0x2178 (run.1.sm_70.ptx:1639) bar.sync 0;
GPGPU-Sim PTX: 33 (potential) branch divergence @  PC=0x2160 (run.1.sm_70.ptx:1633) @%p11 bra BB5_10;
GPGPU-Sim PTX:    immediate post dominator      @  PC=0x2178 (run.1.sm_70.ptx:1639) bar.sync 0;
GPGPU-Sim PTX: 34 (potential) branch divergence @  PC=0x2180 (run.1.sm_70.ptx:1640) @%p10 bra BB5_13;
GPGPU-Sim PTX:    immediate post dominator      @  PC=0x2228 (run.1.sm_70.ptx:1669) cvt.u32.u64%r119, %rd5;
GPGPU-Sim PTX: 35 (potential) branch divergence @  PC=0x21b8 (run.1.sm_70.ptx:1648) @%p13 bra BB5_7;
GPGPU-Sim PTX:    immediate post dominator      @  PC=0x2228 (run.1.sm_70.ptx:1669) cvt.u32.u64%r119, %rd5;
GPGPU-Sim PTX: 36 (potential) branch divergence @  PC=0x21c8 (run.1.sm_70.ptx:1651) @%p14 bra BB5_35;
GPGPU-Sim PTX:    immediate post dominator      @  PC=0x2228 (run.1.sm_70.ptx:1669) cvt.u32.u64%r119, %rd5;
GPGPU-Sim PTX: 37 (potential) branch divergence @  PC=0x21d0 (run.1.sm_70.ptx:1652) bra.uni BB5_5;
GPGPU-Sim PTX:    immediate post dominator      @  PC=0x2218 (run.1.sm_70.ptx:1665) st.global.u32 [%rd8+32], %r27;
GPGPU-Sim PTX: 38 (potential) branch divergence @  PC=0x2210 (run.1.sm_70.ptx:1662) @%p7 bra BB5_35;
GPGPU-Sim PTX:    immediate post dominator      @  PC=0x2228 (run.1.sm_70.ptx:1669) cvt.u32.u64%r119, %rd5;
GPGPU-Sim PTX: 39 (potential) branch divergence @  PC=0x2240 (run.1.sm_70.ptx:1672) @%p37 bra BB5_2;
GPGPU-Sim PTX:    immediate post dominator      @  PC=0x2248 (run.1.sm_70.ptx:1675) ret;
GPGPU-Sim PTX: ... end of reconvergence points for _Z18hash_insert_cuckooP8bucket_sPP7ielem_sPi
GPGPU-Sim PTX: ... done pre-decoding instructions for '_Z18hash_insert_cuckooP8bucket_sPP7ielem_sPi'.
GPGPU-Sim PTX: pushing kernel '_Z18hash_insert_cuckooP8bucket_sPP7ielem_sPi' to stream 1, gridDim= (8,1,1) blockDim = (1024,1,1) 
GPGPU-Sim: synchronize waiting for inactive GPU simulation
GPGPU-Sim API: Stream Manager State
GPGPU-Sim API:    stream 1 has 1 operations
GPGPU-Sim API:       0 :  stream operation kernel
GPGPU-Sim uArch: Shader 0 bind to kernel 1 '_Z18hash_insert_cuckooP8bucket_sPP7ielem_sPi'
GPGPU-Sim uArch: CTA/core = 2, limited by: threads regs
GPGPU-Sim: Reconfigure L1 cache to 128KB
GPGPU-Sim uArch: Shader 1 bind to kernel 1 '_Z18hash_insert_cuckooP8bucket_sPP7ielem_sPi'
GPGPU-Sim uArch: Shader 2 bind to kernel 1 '_Z18hash_insert_cuckooP8bucket_sPP7ielem_sPi'
GPGPU-Sim uArch: Shader 3 bind to kernel 1 '_Z18hash_insert_cuckooP8bucket_sPP7ielem_sPi'
GPGPU-Sim uArch: Shader 4 bind to kernel 1 '_Z18hash_insert_cuckooP8bucket_sPP7ielem_sPi'
GPGPU-Sim uArch: Shader 5 bind to kernel 1 '_Z18hash_insert_cuckooP8bucket_sPP7ielem_sPi'
GPGPU-Sim uArch: Shader 6 bind to kernel 1 '_Z18hash_insert_cuckooP8bucket_sPP7ielem_sPi'
GPGPU-Sim uArch: Shader 7 bind to kernel 1 '_Z18hash_insert_cuckooP8bucket_sPP7ielem_sPi'
Destroy streams for kernel 1: size 0
kernel_name = _Z18hash_insert_cuckooP8bucket_sPP7ielem_sPi 
kernel_launch_uid = 1 
gpu_sim_cycle = 136432
gpu_sim_insn = 31318016
gpu_ipc =     229.5504
gpu_tot_sim_cycle = 136432
gpu_tot_sim_insn = 31318016
gpu_tot_ipc =     229.5504
gpu_tot_issued_cta = 8
gpu_occupancy = 49.9749% 
gpu_tot_occupancy = 49.9749% 
max_total_param_size = 0
gpu_stall_dramfull = 0
gpu_stall_icnt2sh    = 0
partiton_level_parallism =       2.1015
partiton_level_parallism_total  =       2.1015
partiton_level_parallism_util =       2.4740
partiton_level_parallism_util_total  =       2.4740
L2_BW  =      76.1237 GB/Sec
L2_BW_total  =      76.1237 GB/Sec
gpu_total_sim_rate=131037

========= Core cache stats =========
L1I_cache:
	L1I_total_cache_accesses = 0
	L1I_total_cache_misses = 0
	L1I_total_cache_pending_hits = 0
	L1I_total_cache_reservation_fails = 0
L1D_cache:
	L1D_cache_core[0]: Access = 53312, Miss = 32826, Miss_rate = 0.616, Pending_hits = 0, Reservation_fails = 0
	L1D_cache_core[1]: Access = 53312, Miss = 32829, Miss_rate = 0.616, Pending_hits = 0, Reservation_fails = 0
	L1D_cache_core[2]: Access = 53312, Miss = 32831, Miss_rate = 0.616, Pending_hits = 0, Reservation_fails = 0
	L1D_cache_core[3]: Access = 53312, Miss = 32830, Miss_rate = 0.616, Pending_hits = 0, Reservation_fails = 0
	L1D_cache_core[4]: Access = 53312, Miss = 32830, Miss_rate = 0.616, Pending_hits = 0, Reservation_fails = 0
	L1D_cache_core[5]: Access = 53312, Miss = 32824, Miss_rate = 0.616, Pending_hits = 0, Reservation_fails = 0
	L1D_cache_core[6]: Access = 53312, Miss = 32831, Miss_rate = 0.616, Pending_hits = 0, Reservation_fails = 0
	L1D_cache_core[7]: Access = 53312, Miss = 32830, Miss_rate = 0.616, Pending_hits = 0, Reservation_fails = 0
	L1D_cache_core[8]: Access = 0, Miss = 0, Miss_rate = -nan, Pending_hits = 0, Reservation_fails = 0
	L1D_cache_core[9]: Access = 0, Miss = 0, Miss_rate = -nan, Pending_hits = 0, Reservation_fails = 0
	L1D_cache_core[10]: Access = 0, Miss = 0, Miss_rate = -nan, Pending_hits = 0, Reservation_fails = 0
	L1D_cache_core[11]: Access = 0, Miss = 0, Miss_rate = -nan, Pending_hits = 0, Reservation_fails = 0
	L1D_cache_core[12]: Access = 0, Miss = 0, Miss_rate = -nan, Pending_hits = 0, Reservation_fails = 0
	L1D_cache_core[13]: Access = 0, Miss = 0, Miss_rate = -nan, Pending_hits = 0, Reservation_fails = 0
	L1D_cache_core[14]: Access = 0, Miss = 0, Miss_rate = -nan, Pending_hits = 0, Reservation_fails = 0
	L1D_cache_core[15]: Access = 0, Miss = 0, Miss_rate = -nan, Pending_hits = 0, Reservation_fails = 0
	L1D_cache_core[16]: Access = 0, Miss = 0, Miss_rate = -nan, Pending_hits = 0, Reservation_fails = 0
	L1D_cache_core[17]: Access = 0, Miss = 0, Miss_rate = -nan, Pending_hits = 0, Reservation_fails = 0
	L1D_cache_core[18]: Access = 0, Miss = 0, Miss_rate = -nan, Pending_hits = 0, Reservation_fails = 0
	L1D_cache_core[19]: Access = 0, Miss = 0, Miss_rate = -nan, Pending_hits = 0, Reservation_fails = 0
	L1D_cache_core[20]: Access = 0, Miss = 0, Miss_rate = -nan, Pending_hits = 0, Reservation_fails = 0
	L1D_cache_core[21]: Access = 0, Miss = 0, Miss_rate = -nan, Pending_hits = 0, Reservation_fails = 0
	L1D_cache_core[22]: Access = 0, Miss = 0, Miss_rate = -nan, Pending_hits = 0, Reservation_fails = 0
	L1D_cache_core[23]: Access = 0, Miss = 0, Miss_rate = -nan, Pending_hits = 0, Reservation_fails = 0
	L1D_cache_core[24]: Access = 0, Miss = 0, Miss_rate = -nan, Pending_hits = 0, Reservation_fails = 0
	L1D_cache_core[25]: Access = 0, Miss = 0, Miss_rate = -nan, Pending_hits = 0, Reservation_fails = 0
	L1D_cache_core[26]: Access = 0, Miss = 0, Miss_rate = -nan, Pending_hits = 0, Reservation_fails = 0
	L1D_cache_core[27]: Access = 0, Miss = 0, Miss_rate = -nan, Pending_hits = 0, Reservation_fails = 0
	L1D_cache_core[28]: Access = 0, Miss = 0, Miss_rate = -nan, Pending_hits = 0, Reservation_fails = 0
	L1D_cache_core[29]: Access = 0, Miss = 0, Miss_rate = -nan, Pending_hits = 0, Reservation_fails = 0
	L1D_cache_core[30]: Access = 0, Miss = 0, Miss_rate = -nan, Pending_hits = 0, Reservation_fails = 0
	L1D_cache_core[31]: Access = 0, Miss = 0, Miss_rate = -nan, Pending_hits = 0, Reservation_fails = 0
	L1D_cache_core[32]: Access = 0, Miss = 0, Miss_rate = -nan, Pending_hits = 0, Reservation_fails = 0
	L1D_cache_core[33]: Access = 0, Miss = 0, Miss_rate = -nan, Pending_hits = 0, Reservation_fails = 0
	L1D_cache_core[34]: Access = 0, Miss = 0, Miss_rate = -nan, Pending_hits = 0, Reservation_fails = 0
	L1D_cache_core[35]: Access = 0, Miss = 0, Miss_rate = -nan, Pending_hits = 0, Reservation_fails = 0
	L1D_cache_core[36]: Access = 0, Miss = 0, Miss_rate = -nan, Pending_hits = 0, Reservation_fails = 0
	L1D_cache_core[37]: Access = 0, Miss = 0, Miss_rate = -nan, Pending_hits = 0, Reservation_fails = 0
	L1D_cache_core[38]: Access = 0, Miss = 0, Miss_rate = -nan, Pending_hits = 0, Reservation_fails = 0
	L1D_cache_core[39]: Access = 0, Miss = 0, Miss_rate = -nan, Pending_hits = 0, Reservation_fails = 0
	L1D_cache_core[40]: Access = 0, Miss = 0, Miss_rate = -nan, Pending_hits = 0, Reservation_fails = 0
	L1D_cache_core[41]: Access = 0, Miss = 0, Miss_rate = -nan, Pending_hits = 0, Reservation_fails = 0
	L1D_cache_core[42]: Access = 0, Miss = 0, Miss_rate = -nan, Pending_hits = 0, Reservation_fails = 0
	L1D_cache_core[43]: Access = 0, Miss = 0, Miss_rate = -nan, Pending_hits = 0, Reservation_fails = 0
	L1D_cache_core[44]: Access = 0, Miss = 0, Miss_rate = -nan, Pending_hits = 0, Reservation_fails = 0
	L1D_cache_core[45]: Access = 0, Miss = 0, Miss_rate = -nan, Pending_hits = 0, Reservation_fails = 0
	L1D_cache_core[46]: Access = 0, Miss = 0, Miss_rate = -nan, Pending_hits = 0, Reservation_fails = 0
	L1D_cache_core[47]: Access = 0, Miss = 0, Miss_rate = -nan, Pending_hits = 0, Reservation_fails = 0
	L1D_cache_core[48]: Access = 0, Miss = 0, Miss_rate = -nan, Pending_hits = 0, Reservation_fails = 0
	L1D_cache_core[49]: Access = 0, Miss = 0, Miss_rate = -nan, Pending_hits = 0, Reservation_fails = 0
	L1D_cache_core[50]: Access = 0, Miss = 0, Miss_rate = -nan, Pending_hits = 0, Reservation_fails = 0
	L1D_cache_core[51]: Access = 0, Miss = 0, Miss_rate = -nan, Pending_hits = 0, Reservation_fails = 0
	L1D_cache_core[52]: Access = 0, Miss = 0, Miss_rate = -nan, Pending_hits = 0, Reservation_fails = 0
	L1D_cache_core[53]: Access = 0, Miss = 0, Miss_rate = -nan, Pending_hits = 0, Reservation_fails = 0
	L1D_cache_core[54]: Access = 0, Miss = 0, Miss_rate = -nan, Pending_hits = 0, Reservation_fails = 0
	L1D_cache_core[55]: Access = 0, Miss = 0, Miss_rate = -nan, Pending_hits = 0, Reservation_fails = 0
	L1D_cache_core[56]: Access = 0, Miss = 0, Miss_rate = -nan, Pending_hits = 0, Reservation_fails = 0
	L1D_cache_core[57]: Access = 0, Miss = 0, Miss_rate = -nan, Pending_hits = 0, Reservation_fails = 0
	L1D_cache_core[58]: Access = 0, Miss = 0, Miss_rate = -nan, Pending_hits = 0, Reservation_fails = 0
	L1D_cache_core[59]: Access = 0, Miss = 0, Miss_rate = -nan, Pending_hits = 0, Reservation_fails = 0
	L1D_cache_core[60]: Access = 0, Miss = 0, Miss_rate = -nan, Pending_hits = 0, Reservation_fails = 0
	L1D_cache_core[61]: Access = 0, Miss = 0, Miss_rate = -nan, Pending_hits = 0, Reservation_fails = 0
	L1D_cache_core[62]: Access = 0, Miss = 0, Miss_rate = -nan, Pending_hits = 0, Reservation_fails = 0
	L1D_cache_core[63]: Access = 0, Miss = 0, Miss_rate = -nan, Pending_hits = 0, Reservation_fails = 0
	L1D_cache_core[64]: Access = 0, Miss = 0, Miss_rate = -nan, Pending_hits = 0, Reservation_fails = 0
	L1D_cache_core[65]: Access = 0, Miss = 0, Miss_rate = -nan, Pending_hits = 0, Reservation_fails = 0
	L1D_cache_core[66]: Access = 0, Miss = 0, Miss_rate = -nan, Pending_hits = 0, Reservation_fails = 0
	L1D_cache_core[67]: Access = 0, Miss = 0, Miss_rate = -nan, Pending_hits = 0, Reservation_fails = 0
	L1D_cache_core[68]: Access = 0, Miss = 0, Miss_rate = -nan, Pending_hits = 0, Reservation_fails = 0
	L1D_cache_core[69]: Access = 0, Miss = 0, Miss_rate = -nan, Pending_hits = 0, Reservation_fails = 0
	L1D_cache_core[70]: Access = 0, Miss = 0, Miss_rate = -nan, Pending_hits = 0, Reservation_fails = 0
	L1D_cache_core[71]: Access = 0, Miss = 0, Miss_rate = -nan, Pending_hits = 0, Reservation_fails = 0
	L1D_cache_core[72]: Access = 0, Miss = 0, Miss_rate = -nan, Pending_hits = 0, Reservation_fails = 0
	L1D_cache_core[73]: Access = 0, Miss = 0, Miss_rate = -nan, Pending_hits = 0, Reservation_fails = 0
	L1D_cache_core[74]: Access = 0, Miss = 0, Miss_rate = -nan, Pending_hits = 0, Reservation_fails = 0
	L1D_cache_core[75]: Access = 0, Miss = 0, Miss_rate = -nan, Pending_hits = 0, Reservation_fails = 0
	L1D_cache_core[76]: Access = 0, Miss = 0, Miss_rate = -nan, Pending_hits = 0, Reservation_fails = 0
	L1D_cache_core[77]: Access = 0, Miss = 0, Miss_rate = -nan, Pending_hits = 0, Reservation_fails = 0
	L1D_cache_core[78]: Access = 0, Miss = 0, Miss_rate = -nan, Pending_hits = 0, Reservation_fails = 0
	L1D_cache_core[79]: Access = 0, Miss = 0, Miss_rate = -nan, Pending_hits = 0, Reservation_fails = 0
	L1D_total_cache_accesses = 426496
	L1D_total_cache_misses = 262631
	L1D_total_cache_miss_rate = 0.6158
	L1D_total_cache_pending_hits = 0
	L1D_total_cache_reservation_fails = 0
	L1D_cache_data_port_util = 0.158
	L1D_cache_fill_port_util = 0.150
L1C_cache:
	L1C_total_cache_accesses = 0
	L1C_total_cache_misses = 0
	L1C_total_cache_pending_hits = 0
	L1C_total_cache_reservation_fails = 0
L1T_cache:
	L1T_total_cache_accesses = 0
	L1T_total_cache_misses = 0
	L1T_total_cache_pending_hits = 0
	L1T_total_cache_reservation_fails = 0

Total_core_cache_stats:
	Total_core_cache_stats_breakdown[GLOBAL_ACC_R][HIT] = 98330
	Total_core_cache_stats_breakdown[GLOBAL_ACC_R][HIT_RESERVED] = 0
	Total_core_cache_stats_breakdown[GLOBAL_ACC_R][MISS] = 140816
	Total_core_cache_stats_breakdown[GLOBAL_ACC_R][RESERVATION_FAIL] = 0
	Total_core_cache_stats_breakdown[GLOBAL_ACC_R][SECTOR_MISS] = 56278
	Total_core_cache_stats_breakdown[LOCAL_ACC_R][HIT] = 0
	Total_core_cache_stats_breakdown[LOCAL_ACC_R][HIT_RESERVED] = 0
	Total_core_cache_stats_breakdown[LOCAL_ACC_R][MISS] = 0
	Total_core_cache_stats_breakdown[LOCAL_ACC_R][RESERVATION_FAIL] = 0
	Total_core_cache_stats_breakdown[LOCAL_ACC_R][SECTOR_MISS] = 0
	Total_core_cache_stats_breakdown[CONST_ACC_R][HIT] = 0
	Total_core_cache_stats_breakdown[CONST_ACC_R][HIT_RESERVED] = 0
	Total_core_cache_stats_breakdown[CONST_ACC_R][MISS] = 0
	Total_core_cache_stats_breakdown[CONST_ACC_R][RESERVATION_FAIL] = 0
	Total_core_cache_stats_breakdown[CONST_ACC_R][SECTOR_MISS] = 0
	Total_core_cache_stats_breakdown[TEXTURE_ACC_R][HIT] = 0
	Total_core_cache_stats_breakdown[TEXTURE_ACC_R][HIT_RESERVED] = 0
	Total_core_cache_stats_breakdown[TEXTURE_ACC_R][MISS] = 0
	Total_core_cache_stats_breakdown[TEXTURE_ACC_R][RESERVATION_FAIL] = 0
	Total_core_cache_stats_breakdown[TEXTURE_ACC_R][SECTOR_MISS] = 0
	Total_core_cache_stats_breakdown[GLOBAL_ACC_W][HIT] = 65535
	Total_core_cache_stats_breakdown[GLOBAL_ACC_W][HIT_RESERVED] = 0
	Total_core_cache_stats_breakdown[GLOBAL_ACC_W][MISS] = 1
	Total_core_cache_stats_breakdown[GLOBAL_ACC_W][RESERVATION_FAIL] = 0
	Total_core_cache_stats_breakdown[GLOBAL_ACC_W][SECTOR_MISS] = 65536
	Total_core_cache_stats_breakdown[LOCAL_ACC_W][HIT] = 0
	Total_core_cache_stats_breakdown[LOCAL_ACC_W][HIT_RESERVED] = 0
	Total_core_cache_stats_breakdown[LOCAL_ACC_W][MISS] = 0
	Total_core_cache_stats_breakdown[LOCAL_ACC_W][RESERVATION_FAIL] = 0
	Total_core_cache_stats_breakdown[LOCAL_ACC_W][SECTOR_MISS] = 0
	Total_core_cache_stats_breakdown[L1_WRBK_ACC][HIT] = 0
	Total_core_cache_stats_breakdown[L1_WRBK_ACC][HIT_RESERVED] = 0
	Total_core_cache_stats_breakdown[L1_WRBK_ACC][MISS] = 0
	Total_core_cache_stats_breakdown[L1_WRBK_ACC][RESERVATION_FAIL] = 0
	Total_core_cache_stats_breakdown[L1_WRBK_ACC][SECTOR_MISS] = 0
	Total_core_cache_stats_breakdown[L2_WRBK_ACC][HIT] = 0
	Total_core_cache_stats_breakdown[L2_WRBK_ACC][HIT_RESERVED] = 0
	Total_core_cache_stats_breakdown[L2_WRBK_ACC][MISS] = 0
	Total_core_cache_stats_breakdown[L2_WRBK_ACC][RESERVATION_FAIL] = 0
	Total_core_cache_stats_breakdown[L2_WRBK_ACC][SECTOR_MISS] = 0
	Total_core_cache_stats_breakdown[INST_ACC_R][HIT] = 0
	Total_core_cache_stats_breakdown[INST_ACC_R][HIT_RESERVED] = 0
	Total_core_cache_stats_breakdown[INST_ACC_R][MISS] = 0
	Total_core_cache_stats_breakdown[INST_ACC_R][RESERVATION_FAIL] = 0
	Total_core_cache_stats_breakdown[INST_ACC_R][SECTOR_MISS] = 0
	Total_core_cache_stats_breakdown[L1_WR_ALLOC_R][HIT] = 0
	Total_core_cache_stats_breakdown[L1_WR_ALLOC_R][HIT_RESERVED] = 0
	Total_core_cache_stats_breakdown[L1_WR_ALLOC_R][MISS] = 0
	Total_core_cache_stats_breakdown[L1_WR_ALLOC_R][RESERVATION_FAIL] = 0
	Total_core_cache_stats_breakdown[L1_WR_ALLOC_R][SECTOR_MISS] = 0
	Total_core_cache_stats_breakdown[L2_WR_ALLOC_R][HIT] = 0
	Total_core_cache_stats_breakdown[L2_WR_ALLOC_R][HIT_RESERVED] = 0
	Total_core_cache_stats_breakdown[L2_WR_ALLOC_R][MISS] = 0
	Total_core_cache_stats_breakdown[L2_WR_ALLOC_R][RESERVATION_FAIL] = 0
	Total_core_cache_stats_breakdown[L2_WR_ALLOC_R][SECTOR_MISS] = 0
	Total_core_cache_stats_breakdown[GLOBAL_ACC_R][TOTAL_ACCESS] = 295424
	Total_core_cache_stats_breakdown[GLOBAL_ACC_W][TOTAL_ACCESS] = 131072

Total_core_cache_fail_stats:
Shader 0 warp_id issue ditsribution:
warp_id:
0, 1, 2, 3, 4, 5, 6, 7, 8, 9, 10, 11, 12, 13, 14, 15, 16, 17, 18, 19, 20, 21, 22, 23, 24, 25, 26, 27, 28, 29, 30, 31, 
distro:
4377, 4377, 4377, 4377, 4377, 4377, 4377, 4377, 4377, 4377, 4377, 4377, 4377, 4377, 4377, 4377, 4377, 4377, 4377, 4377, 4377, 4377, 4377, 4377, 4377, 4377, 4377, 4377, 4377, 4377, 4377, 4377, 
gpgpu_n_tot_thrd_icount = 35856384
gpgpu_n_tot_w_icount = 1120512
gpgpu_n_stall_shd_mem = 294912
gpgpu_n_mem_read_local = 0
gpgpu_n_mem_write_local = 0
gpgpu_n_mem_read_global = 155636
gpgpu_n_mem_write_global = 131072
gpgpu_n_mem_texture = 0
gpgpu_n_mem_const = 0
gpgpu_n_load_insn  = 3162112
gpgpu_n_store_insn = 131072
gpgpu_n_shmem_insn = 0
gpgpu_n_sstarr_insn = 0
gpgpu_n_tex_insn = 0
gpgpu_n_const_mem_insn = 0
gpgpu_n_param_mem_insn = 24576
gpgpu_n_shmem_bkconflict = 0
gpgpu_n_cache_bkconflict = 0
gpgpu_n_intrawarp_mshr_merge = 0
gpgpu_n_cmem_portconflict = 0
gpgpu_stall_shd_mem[c_mem][resource_stall] = 0
gpgpu_stall_shd_mem[s_mem][bk_conf] = 0
gpgpu_stall_shd_mem[gl_mem][resource_stall] = 294912
gpgpu_stall_shd_mem[gl_mem][coal_stall] = 0
gpgpu_stall_shd_mem[gl_mem][data_port_stall] = 0
gpu_reg_bank_conflict_stalls = 0
Warp Occupancy Distribution:
Stall:188118	W0_Idle:89978	W0_Scoreboard:2754412	W1:0	W2:0	W3:0	W4:81920	W5:0	W6:0	W7:0	W8:0	W9:0	W10:0	W11:0	W12:0	W13:0	W14:0	W15:0	W16:0	W17:0	W18:0	W19:0	W20:0	W21:0	W22:0	W23:0	W24:0	W25:0	W26:0	W27:0	W28:0	W29:0	W30:0	W31:0	W32:1038592
single_issue_nums: WS0:280128	WS1:280128	WS2:280128	WS3:280128	
dual_issue_nums: WS0:0	WS1:0	WS2:0	WS3:0	
traffic_breakdown_coretomem[GLOBAL_ACC_R] = 1245088 {8:155636,}
traffic_breakdown_coretomem[GLOBAL_ACC_W] = 5242880 {40:131072,}
traffic_breakdown_memtocore[GLOBAL_ACC_R] = 6225440 {40:155636,}
traffic_breakdown_memtocore[GLOBAL_ACC_W] = 1048576 {8:131072,}
maxmflatency = 1097 
max_icnt2mem_latency = 129 
maxmrqlatency = 266 
max_icnt2sh_latency = 17 
averagemflatency = 298 
avg_icnt2mem_latency = 23 
avg_mrq_latency = 7 
avg_icnt2sh_latency = 2 
mrq_lat_table:63234 	14616 	2053 	2141 	4677 	6190 	2298 	159 	1 	0 	0 	0 	0 	0 	0 	0 	0 	0 	0 	0 	0 	0 	0 	0 	0 	0 	0 	0 	0 	0 	0 	0 	
dq_lat_table:0 	0 	0 	0 	0 	0 	0 	0 	0 	0 	0 	0 	0 	0 	0 	0 	0 	0 	0 	0 	0 	0 	0 	0 	0 	0 	0 	0 	0 	0 	0 	0 	
mf_lat_table:0 	0 	0 	0 	0 	0 	0 	211656 	36999 	38041 	12 	0 	0 	0 	0 	0 	0 	0 	0 	0 	0 	0 	0 	0 	0 	0 	0 	0 	0 	0 	0 	0 	
icnt2mem_lat_table:0 	0 	0 	0 	286343 	106 	258 	1 	0 	0 	0 	0 	0 	0 	0 	0 	0 	0 	0 	0 	0 	0 	0 	0 	
icnt2sh_lat_table:0 	258420 	27364 	919 	5 	0 	0 	0 	0 	0 	0 	0 	0 	0 	0 	0 	0 	0 	0 	0 	0 	0 	0 	0 	
mf_lat_pw_table:0 	0 	0 	0 	0 	0 	0 	73 	185 	4 	0 	0 	0 	0 	0 	0 	0 	0 	0 	0 	0 	0 	0 	0 	0 	0 	0 	0 	0 	0 	0 	0 	
maximum concurrent accesses to same row:
dram[0]:         8         8         8         8         8         8         8         6         8         8         8        16         1         1         1         1 
dram[1]:         8         8         8        16         8        16         8         8         8         8         8        12         2         1         1         2 
dram[2]:         8         8        12        12        16         8         8         8        11         8         8        14         1         1         1         1 
dram[3]:         8         8         8         8         8         8         8         8         8         8         8        12         1         1         1         1 
dram[4]:         8         8         8         8         8         8         4         8         8         6         8        16         2         1         1         1 
dram[5]:         8         8        12         8         8         8         7         8         8         8        16        16         2         1         1         2 
dram[6]:         8         8         8         8         8         8         8         4         5         8         8        16         1         2         1         1 
dram[7]:         7         8         8         8         8         9         8         8         8         8         8        16         1         1         1         1 
dram[8]:         8         8         8         8         8        16         8         8         8         8        16        15         1         1         1         1 
dram[9]:         8         8         8         8        15         8         8         8         8         8        15        16         1         1         1         1 
dram[10]:         8         7         8         8        16        16         8         6         5         8        12        16         1         1         1         1 
dram[11]:         4         8         8        12         8         8         8         8         4         8        10        16         1         2         2         1 
dram[12]:         8         8         8         8         8        12         8         8        12         8        12        16         1         2         2         1 
dram[13]:         8         8         8        12        16         8         8         8         8         8         8        16         2         2         1         1 
dram[14]:         8         8         8        12         8         8         8         8         8         8        12        16         1         1         1         1 
dram[15]:         8         8         8         4         8         8         7         8         8         8        16        12         1         1         1         1 
dram[16]:         8         8         8         8         8         8         8         8         7         8        16        16         1         1         1         1 
dram[17]:         8         7         4         8        14         8         8         8         8         8        16        16         1         1         1         2 
dram[18]:         8         8         8        16         8         8         8         8         4         8        15        16         2         1         1         1 
dram[19]:         8         8         8        10         8         8         8         8         8         8        12         8         1         1         1         1 
dram[20]:         8         8         8        12        16         8         8         8         8         8        16        13         2         1         1         1 
dram[21]:         8         8         8        16         8         8         8         8         8         8        16        16         1         1         1         1 
dram[22]:         8         8         8         4         8         8         8         8         8         8        16        14         1         2         1         2 
dram[23]:         8         8         8         8         8         8         8         8         8         8        12         9         1         1         1         1 
dram[24]:         8         8        12         8         8         8         8         8         8         8        16        12         1         1         1         1 
dram[25]:         8         8         8         8         8         8         8         8         8         8         8        16         1         1         1         1 
dram[26]:         8         8         8        10        16         8         8         8         8         8        12         9         1         1         1         1 
dram[27]:         8         8         8         8         8         8         8         8         8         8        12        12         2         1         1         2 
dram[28]:         8         8         8         9         8         8         8         8         7         8        12        16         1         1         1         1 
dram[29]:         8         8         8         9         8         8         8         8         8         8        16         8         1         1         1         1 
dram[30]:         8         8         8         8         8         8         8         8         8         8        12        16         1         1         1         1 
dram[31]:         8         8         8        12         8        16         8         8         8         8        16         9         1         1         1         1 
maximum service time to same row:
dram[0]:      6382      6208      6305      6274      6365      6362      6250      6253      6270      6265      6226      7838      6378      7940      6330      7877 
dram[1]:      6417      7726      6389      6381      6249      6250      6290      6350      6349      6270      8003      6269      6422      6425      6245      6345 
dram[2]:      6309      6212      6273      6337      6361      7830      6306      6381      6253      6329      6318      7723      6390      6254      6209      6365 
dram[3]:      6216      6261      6402      6269      6337      6245      6341      6305      6326      6373      6273      6361      6422      6289      6317      6253 
dram[4]:      6234      6301      6212      8128      6432      7770      6253      6433      6241      6365      6394      6211      6249      6297      7931      7902 
dram[5]:      6249      6229      6250      6212      6298      6245      6301      6377      6358      6310      6341      8143      7918      7899      7810      6253 
dram[6]:      7679      6531      6241      6318      6229      7188      6361      7798      7746      6310      7886      6302      6394      6224      6290      6230 
dram[7]:      6285      6337      6358      6385      7762      7790      6386      6281      7743      6388      6369      6341      6242      6212      6289      7802 
dram[8]:      6543      7846      6216      6305      6374      6290      6310      6224      6261      6265      7834      6286      6266      7706      6253      6205 
dram[9]:      6262      7045      6417      6312      6334      9262      6254      6390      6357      6246      6333      6366      6377      6265      7893      7883 
dram[10]:      6269      6215      6940      6211      6258      6296      7973      6321      6313      6261      6358      6230      6237      6305      6208      6293 
dram[11]:      6229      6241      8647      6381      6330      6233      8895      6265      7818      6301      6325      6302      6357      6397      7156      9183 
dram[12]:      7890      6293      6406      7849      6757      6230      6373      6265      6249      6350      6266      6233      6208      6270      6337      6370 
dram[13]:      6386      6936      7778      6250      6254      6365      6293      6378      6329      6385      6246      6396      6209      7851      6413      6385 
dram[14]:      6241      6386      6398      6381      6341      6269      7706      6369      6301      6361      6370      6229      6230      6277      6800      7795 
dram[15]:      6337      6245      6249      6207      6413      6285      7743      6313      6246      6253      7935      6226      6233      6242      6458      7145 
dram[16]:      6289      6341      6381      6212      6233      6241      6385      6253      6338      6361      6290      6384      6249      6262      6269      6230 
dram[17]:      6373      7699      6298      6293      6369      6417      7682      6394      6405      6317      7138      6342      7799      7678      6402      6297 
dram[18]:      9344      7706      6253      6298      6257      6234      6233      6208      6297      8059      6290      6237      6265      6776      7787      6261 
dram[19]:      6334      9409      6306      6426      6393      7738      6386      6402      6273      6266      6309      6382      6401      6298      6314      6269 
dram[20]:      6241      6370      6293      6406      6273      6225      6250      6365      7923      9457      6212      6603      6309      6286      6398      6305 
dram[21]:      6269      6365      6241      7798      6334      7831      6434      7779      6246      6257      6253      6341      6381      6225      6213      6390 
dram[22]:      7739      6465      6301      6258      6370      6338      6229      6381      7859      6257      6293      7762      6334      6389      6266      7835 
dram[23]:      6253      6207      6294      6237      6277      6349      6318      6249      6241      7774      6401      6245      6365      6309      6257      6233 
dram[24]:      6341      6285      6381      6421      7750      6258      6286      6269      9303      6429      6229      6254      6216      6246      6297      6433 
dram[25]:      6333      7919      6245      6249      6237      8063      6433      6414      6317      6329      6230      6224      6285      6262      6261      7850 
dram[26]:      6317      8653      6293      6212      6286      6345      6432      6430      6332      7714      6378      9247      6333      6429      7798      7979 
dram[27]:      6213      6282      6265      6289      6341      6245      7687      6325      6301      6237     12222      6285      9340      6378      6366      7770 
dram[28]:      6386      6382      6261      6301      6297      7730      6213      6211      9618      6208      6341      6242      6381      7815      7906      6212 
dram[29]:      6277      7718      7875      6318      6301      6245      6365      6432      6364      6224      6337      6339      6258      7782      6333      6305 
dram[30]:      6250      6277      6358      6249      6215      6385      7855      6257      6285      6382      6242      6241      6353      6254      6301      6326 
dram[31]:      6358      6249      6266      6313      6369      6237      7305      6349      6229      7826      6350      6301      6262      6357      6273      6285 
average row accesses per activate:
dram[0]:  1.069893  1.120690  1.128205  1.090047  1.160428  1.167568  1.099415  1.060773  1.079755  1.102410  1.187879  1.178161  1.000000  1.000000  1.000000  1.000000 
dram[1]:  1.068493  1.096970  1.078652  1.149701  1.123457  1.170068  1.054795  1.086667  1.053763  1.090909  1.136364  1.163399  1.005128  1.000000  1.000000  1.006098 
dram[2]:  1.090323  1.094444  1.093137  1.114943  1.196429  1.232704  1.088608  1.082051  1.133333  1.080808  1.092486  1.188172  1.000000  1.000000  1.000000  1.000000 
dram[3]:  1.083832  1.075145  1.121429  1.114458  1.174194  1.184524  1.059524  1.092715  1.071429  1.104938  1.129943  1.136612  1.000000  1.000000  1.000000  1.000000 
dram[4]:  1.059880  1.093168  1.069930  1.101449  1.125874  1.211268  1.042253  1.068493  1.075581  1.070588  1.118056  1.220690  1.007194  1.000000  1.000000  1.000000 
dram[5]:  1.038462  1.114754  1.099010  1.109948  1.116279  1.113300  1.111111  1.085000  1.071823  1.116279  1.168421  1.214765  1.006135  1.000000  1.000000  1.006452 
dram[6]:  1.095238  1.109677  1.074286  1.130435  1.111732  1.166667  1.074286  1.064286  1.064748  1.089041  1.125786  1.159341  1.000000  1.005952  1.000000  1.000000 
dram[7]:  1.058064  1.102941  1.080925  1.092715  1.147239  1.165681  1.077348  1.062893  1.082759  1.114286  1.157534  1.189024  1.000000  1.000000  1.000000  1.000000 
dram[8]:  1.044304  1.114286  1.077348  1.096970  1.141176  1.151685  1.092025  1.132353  1.064935  1.097701  1.216867  1.202614  1.000000  1.000000  1.000000  1.000000 
dram[9]:  1.092715  1.110429  1.079545  1.092683  1.149733  1.189873  1.074713  1.083832  1.071038  1.103261  1.140704  1.170213  1.000000  1.000000  1.000000  1.000000 
dram[10]:  1.075145  1.067797  1.083871  1.087379  1.170588  1.172414  1.086420  1.048387  1.066298  1.103659  1.180645  1.239130  1.000000  1.000000  1.000000  1.000000 
dram[11]:  1.016304  1.093264  1.098160  1.140351  1.106667  1.165049  1.118881  1.077273  1.035503  1.111732  1.150754  1.153846  1.000000  1.011765  1.006452  1.000000 
dram[12]:  1.084337  1.082927  1.102564  1.147436  1.137755  1.182320  1.067708  1.070175  1.138122  1.111111  1.147368  1.175824  1.000000  1.004831  1.006173  1.000000 
dram[13]:  1.062112  1.070922  1.082902  1.150602  1.178161  1.143791  1.077844  1.102273  1.088398  1.106250  1.150838  1.170213  1.005650  1.006757  1.000000  1.000000 
dram[14]:  1.093923  1.114754  1.097143  1.155280  1.126374  1.197605  1.120805  1.103896  1.117284  1.112994  1.143713  1.240260  1.000000  1.000000  1.000000  1.000000 
dram[15]:  1.071429  1.145833  1.090000  1.055556  1.172414  1.155440  1.034483  1.100719  1.094340  1.110497  1.181250  1.153846  1.000000  1.000000  1.000000  1.000000 
dram[16]:  1.059172  1.119048  1.094444  1.137143  1.122699  1.176768  1.074286  1.069893  1.052326  1.095477  1.186046  1.188172  1.000000  1.000000  1.000000  1.000000 
dram[17]:  1.096386  1.090452  1.053892  1.124324  1.213415  1.180000  1.084270  1.083333  1.103030  1.103261  1.157068  1.171123  1.000000  1.000000  1.000000  1.005405 
dram[18]:  1.059701  1.126437  1.111842  1.242424  1.112994  1.137255  1.091503  1.123656  1.038217  1.128049  1.177632  1.223776  1.007407  1.000000  1.000000  1.000000 
dram[19]:  1.061350  1.085714  1.098592  1.153846  1.147651  1.196429  1.106061  1.112903  1.064516  1.103774  1.133333  1.161290  1.000000  1.000000  1.000000  1.000000 
dram[20]:  1.071823  1.079545  1.168831  1.158823  1.161677  1.156250  1.135135  1.119318  1.088608  1.129252  1.164706  1.193370  1.005319  1.000000  1.000000  1.000000 
dram[21]:  1.086957  1.120000  1.180645  1.197531  1.140351  1.153846  1.104046  1.138728  1.077348  1.110465  1.172619  1.209581  1.000000  1.000000  1.000000  1.000000 
dram[22]:  1.065789  1.058140  1.106250  1.070175  1.166667  1.120879  1.086420  1.090323  1.097297  1.102941  1.230769  1.207407  1.000000  1.006135  1.000000  1.006024 
dram[23]:  1.082840  1.087432  1.096774  1.130435  1.146465  1.192893  1.090425  1.067010  1.124224  1.136054  1.165681  1.193370  1.000000  1.000000  1.000000  1.000000 
dram[24]:  1.090909  1.116022  1.148148  1.168478  1.186747  1.157895  1.079096  1.102326  1.084849  1.171598  1.213333  1.140351  1.000000  1.000000  1.000000  1.000000 
dram[25]:  1.096591  1.111842  1.141176  1.113636  1.182857  1.179191  1.075145  1.115385  1.107843  1.133333  1.153846  1.185567  1.000000  1.000000  1.000000  1.000000 
dram[26]:  1.084849  1.111765  1.111111  1.203704  1.179775  1.177083  1.085890  1.097561  1.096386  1.136905  1.197531  1.281046  1.000000  1.000000  1.000000  1.000000 
dram[27]:  1.063107  1.081395  1.119048  1.143713  1.160804  1.228916  1.096386  1.098592  1.104167  1.124260  1.145455  1.243056  1.006623  1.000000  1.000000  1.006410 
dram[28]:  1.074713  1.122699  1.081340  1.144860  1.156250  1.168317  1.093407  1.091324  1.051136  1.107477  1.155172  1.191176  1.000000  1.000000  1.000000  1.000000 
dram[29]:  1.049020  1.159236  1.105263  1.150838  1.185629  1.181818  1.094972  1.084158  1.098160  1.128655  1.195266  1.177143  1.000000  1.000000  1.000000  1.000000 
dram[30]:  1.094444  1.099379  1.101064  1.139394  1.161491  1.144231  1.115607  1.067308  1.081967  1.141844  1.156425  1.214765  1.000000  1.000000  1.000000  1.000000 
dram[31]:  1.113636  1.144330  1.114754  1.153846  1.183246  1.206452  1.100000  1.095506  1.103825  1.136364  1.165681  1.162304  1.000000  1.000000  1.000000  1.000000 
average row locality = 95369/87294 = 1.092504
number of total memory accesses made:
dram[0]:         0         0         0         0         0         0         0         0         0         0         0         0         0         0         0         0 
dram[1]:         0         0         0         0         0         0         0         0         0         0         0         0         0         0         0         0 
dram[2]:         0         0         0         0         0         0         0         0         0         0         0         0         0         0         0         0 
dram[3]:         0         0         0         0         0         0         0         0         0         0         0         0         0         0         0         0 
dram[4]:         0         0         0         0         0         0         0         0         0         0         0         0         0         0         0         0 
dram[5]:         0         0         0         0         0         0         0         0         0         0         0         0         0         0         0         0 
dram[6]:         0         0         0         0         0         0         0         0         0         0         0         0         0         0         0         0 
dram[7]:         0         0         0         0         0         0         0         0         0         0         0         0         0         0         0         0 
dram[8]:         0         0         0         0         0         0         0         0         0         0         0         0         0         0         0         0 
dram[9]:         0         0         0         0         0         0         0         0         0         0         0         0         0         0         0         0 
dram[10]:         0         0         0         0         0         0         0         0         0         0         0         0         0         0         0         0 
dram[11]:         0         0         0         0         0         0         0         0         0         0         0         0         0         0         0         0 
dram[12]:         0         0         0         0         0         0         0         0         0         0         0         0         0         0         0         0 
dram[13]:         0         0         0         0         0         0         0         0         0         0         0         0         0         0         0         0 
dram[14]:         0         0         0         0         0         0         0         0         0         0         0         0         0         0         0         0 
dram[15]:         0         0         0         0         0         0         0         0         0         0         0         0         0         0         0         0 
dram[16]:         0         0         0         0         0         0         0         0         0         0         0         0         0         0         0         0 
dram[17]:         0         0         0         0         0         0         0         0         0         0         0         0         0         0         0         0 
dram[18]:         0         0         0         0         0         0         0         0         0         0         0         0         0         0         0         0 
dram[19]:         0         0         0         0         0         0         0         0         0         0         0         0         0         0         0         0 
dram[20]:         0         0         0         0         0         0         0         0         0         0         0         0         0         0         0         0 
dram[21]:         0         0         0         0         0         0         0         0         0         0         0         0         0         0         0         0 
dram[22]:         0         0         0         0         0         0         0         0         0         0         0         0         0         0         0         0 
dram[23]:         0         0         0         0         0         0         0         0         0         0         0         0         0         0         0         0 
dram[24]:         0         0         0         0         0         0         0         0         0         0         0         0         0         0         0         0 
dram[25]:         0         0         0         0         0         0         0         0         0         0         0         0         0         0         0         0 
dram[26]:         0         0         0         0         0         0         0         0         0         0         0         0         0         0         0         0 
dram[27]:         0         0         0         0         0         0         0         0         0         0         0         0         0         0         0         0 
dram[28]:         0         0         0         0         0         0         0         0         0         0         0         0         0         0         0         0 
dram[29]:         0         0         0         0         0         0         0         0         0         0         0         0         0         0         0         0 
dram[30]:         0         0         0         0         0         0         0         0         0         0         0         0         0         0         0         0 
dram[31]:         0         0         0         0         0         0         0         0         0         0         0         0         0         0         0         0 
total accesses: 0
min_bank_accesses = 0!
min_chip_accesses = 0!
number of total read accesses:
dram[0]:       158       153       140       177       171       174       145       153       141       146       163       155       137       118       119       124 
dram[1]:       127       144       146       159       146       136       117       131       148       135       160       140       149       121       125       126 
dram[2]:       133       151       173       154       156       164       138       158       164       160       150       173       134       138       127       127 
dram[3]:       142       147       134       149       146       165       143       129       117       144       162       169       138        99       123       114 
dram[4]:       138       136       122       123       133       146       119       126       155       148       131       140       115       131       132       135 
dram[5]:       147       157       172       161       148       175       150       168       148       154       170       142       127       131       115       116 
dram[6]:       135       143       151       147       162       138       145       123       114       128       142       164       113       131       137       139 
dram[7]:       133       176       148       133       154       159       145       131       129       152       139       156       117       129       142       124 
dram[8]:       133       161       152       139       157       166       140       118       137       153       166       152       122       129       106       114 
dram[9]:       126       141       154       170       170       158       148       145       153       155       179       178       127       123        92       114 
dram[10]:       143       148       128       172       154       138       139       156       159       143       151       141       140       118       134       135 
dram[11]:       148       169       145       154       129       188       129       174       142       152       178       153       112       128       123       113 
dram[12]:       144       163       139       148       173       168       153       177       165       155       170       170       145       151       124       124 
dram[13]:       134       126       162       157       163       140       140       154       152       140       164       166       132       120       121       122 
dram[14]:       151       161       152       150       163       161       136       137       147       156       153       157       142       131       117       119 
[...]
issued_total_row = 5376 
issued_total_col = 3594 
Row_Bus_Util =  0.050551 
CoL_Bus_Util = 0.033795 
Either_Row_CoL_Bus_Util = 0.080575 
Issued_on_Two_Bus_Simul_Util = 0.003771 
issued_two_Eff = 0.046797 
queue_avg = 0.158818 


dram_util_bins: 0 0 0 0 0 0 0 0 0 0
dram_eff_bins: 0 0 0 0 0 0 0 0 0 0
mrqq: max=15 avg=0.158818
Memory Partition 28: 
Cache L2_bank_056:
MSHR contents

Cache L2_bank_057:
MSHR contents

In Dram Latency Queue (total = 0): 
DRAM[28]: 16 bks, busW=16 BL=2 CL=12, tRRD=3 tCCD=1, tRCD=12 tRAS=28 tRP=12 tRC=40
n_cmd=106348 n_nop=96634 n_act=3044 n_pre=3028 n_ref_event=0 n_req=3324 n_rd=2534 n_rd_L2_A=0 n_write=0 n_wr_bk=1584 bw_util=0.03872
n_activity=48962 dram_eff=0.08411
bk0: 146a 101308i bk1: 140a 101493i bk2: 177a 100252i bk3: 187a 100069i bk4: 176a 100731i bk5: 181a 100296i bk6: 153a 101045i bk7: 174a 99747i bk8: 136a 101267i bk9: 175a 100097i bk10: 155a 101266i bk11: 196a 100399i bk12: 149a 100381i bk13: 125a 101672i bk14: 130a 101373i bk15: 134a 101134i 

------------------------------------------------------------------------

Row_Buffer_Locality = 0.084236
Row_Buffer_Locality_read = 0.110497
Row_Buffer_Locality_write = 0.000000
Bank_Level_Parallism = 2.491220
Bank_Level_Parallism_Col = 1.702359
Bank_Level_Parallism_Ready = 1.059009
write_to_read_ratio_blp_rw_average = 0.276709
GrpLevelPara = 1.495683 

BW Util details:
bwutil = 0.038722 
total_CMD = 106348 
util_bw = 4118 
Wasted_Col = 21180 
Wasted_Row = 11777 
Idle = 69273 

BW Util Bottlenecks: 
RCDc_limit = 23526 
RCDWRc_limit = 6545 
WTRc_limit = 5174 
RTWc_limit = 4474 
CCDLc_limit = 1966 
rwq = 0 
CCDLc_limit_alone = 1392 
WTRc_limit_alone = 4779 
RTWc_limit_alone = 4295 

Commands details: 
total_CMD = 106348 
n_nop = 96634 
Read = 2534 
Write = 0 
L2_Alloc = 0 
L2_WB = 1584 
n_act = 3044 
n_pre = 3028 
n_ref = 0 
n_req = 3324 
total_req = 4118 

Dual Bus Interface Util: 
issued_total_row = 6072 
issued_total_col = 4118 
Row_Bus_Util =  0.057096 
CoL_Bus_Util = 0.038722 
Either_Row_CoL_Bus_Util = 0.091342 
Issued_on_Two_Bus_Simul_Util = 0.004476 
issued_two_Eff = 0.049001 
queue_avg = 0.151014 


dram_util_bins: 0 0 0 0 0 0 0 0 0 0
dram_eff_bins: 0 0 0 0 0 0 0 0 0 0
mrqq: max=11 avg=0.151014
Memory Partition 29: 
Cache L2_bank_058:
MSHR contents

Cache L2_bank_059:
MSHR contents

In Dram Latency Queue (total = 0): 
DRAM[29]: 16 bks, busW=16 BL=2 CL=12, tRRD=3 tCCD=1, tRCD=12 tRAS=28 tRP=12 tRC=40
n_cmd=106348 n_nop=97361 n_act=2826 n_pre=2810 n_ref_event=0 n_req=3113 n_rd=2426 n_rd_L2_A=0 n_write=0 n_wr_bk=1376 bw_util=0.03575
n_activity=46466 dram_eff=0.08182
bk0: 163a 100384i bk1: 138a 101739i bk2: 171a 100775i bk3: 160a 101231i bk4: 160a 101353i bk5: 201a 100308i bk6: 148a 101278i bk7: 164a 100596i bk8: 139a 101523i bk9: 150a 101376i bk10: 158a 101414i bk11: 170a 101322i bk12: 128a 101336i bk13: 126a 101488i bk14: 136a 101247i bk15: 114a 102171i 

------------------------------------------------------------------------

Row_Buffer_Locality = 0.092194
Row_Buffer_Locality_read = 0.118302
Row_Buffer_Locality_write = 0.000000
Bank_Level_Parallism = 2.499633
Bank_Level_Parallism_Col = 1.689595
Bank_Level_Parallism_Ready = 1.048133
write_to_read_ratio_blp_rw_average = 0.256026
GrpLevelPara = 1.492780 

BW Util details:
bwutil = 0.035751 
total_CMD = 106348 
util_bw = 3802 
Wasted_Col = 19423 
Wasted_Row = 10836 
Idle = 72287 

BW Util Bottlenecks: 
RCDc_limit = 22157 
RCDWRc_limit = 5734 
WTRc_limit = 5125 
RTWc_limit = 3284 
CCDLc_limit = 1810 
rwq = 0 
CCDLc_limit_alone = 1364 
WTRc_limit_alone = 4764 
RTWc_limit_alone = 3199 

Commands details: 
total_CMD = 106348 
n_nop = 97361 
Read = 2426 
Write = 0 
L2_Alloc = 0 
L2_WB = 1376 
n_act = 2826 
n_pre = 2810 
n_ref = 0 
n_req = 3113 
total_req = 3802 

Dual Bus Interface Util: 
issued_total_row = 5636 
issued_total_col = 3802 
Row_Bus_Util =  0.052996 
CoL_Bus_Util = 0.035751 
Either_Row_CoL_Bus_Util = 0.084506 
Issued_on_Two_Bus_Simul_Util = 0.004241 
issued_two_Eff = 0.050184 
queue_avg = 0.133533 


dram_util_bins: 0 0 0 0 0 0 0 0 0 0
dram_eff_bins: 0 0 0 0 0 0 0 0 0 0
mrqq: max=14 avg=0.133533
Memory Partition 30: 
Cache L2_bank_060:
MSHR contents

Cache L2_bank_061:
MSHR contents

In Dram Latency Queue (total = 0): 
DRAM[30]: 16 bks, busW=16 BL=2 CL=12, tRRD=3 tCCD=1, tRCD=12 tRAS=28 tRP=12 tRC=40
n_cmd=106348 n_nop=97441 n_act=2810 n_pre=2794 n_ref_event=0 n_req=3070 n_rd=2390 n_rd_L2_A=0 n_write=0 n_wr_bk=1360 bw_util=0.03526
n_activity=46807 dram_eff=0.08012
bk0: 147a 101191i bk1: 137a 101856i bk2: 168a 100921i bk3: 147a 101627i bk4: 151a 101679i bk5: 186a 100123i bk6: 145a 101284i bk7: 171a 100246i bk8: 157a 100926i bk9: 133a 102270i bk10: 163a 101059i bk11: 151a 102065i bk12: 131a 101332i bk13: 134a 101022i bk14: 132a 101503i bk15: 137a 100996i 

------------------------------------------------------------------------

Row_Buffer_Locality = 0.084691
Row_Buffer_Locality_read = 0.108787
Row_Buffer_Locality_write = 0.000000
Bank_Level_Parallism = 2.448035
Bank_Level_Parallism_Col = 1.672142
Bank_Level_Parallism_Ready = 1.050400
write_to_read_ratio_blp_rw_average = 0.253636
GrpLevelPara = 1.490738 

BW Util details:
bwutil = 0.035262 
total_CMD = 106348 
util_bw = 3750 
Wasted_Col = 19715 
Wasted_Row = 11068 
Idle = 71815 

BW Util Bottlenecks: 
RCDc_limit = 22274 
RCDWRc_limit = 5682 
WTRc_limit = 4731 
RTWc_limit = 3602 
CCDLc_limit = 1690 
rwq = 0 
CCDLc_limit_alone = 1236 
WTRc_limit_alone = 4399 
RTWc_limit_alone = 3480 

Commands details: 
total_CMD = 106348 
n_nop = 97441 
Read = 2390 
Write = 0 
L2_Alloc = 0 
L2_WB = 1360 
n_act = 2810 
n_pre = 2794 
n_ref = 0 
n_req = 3070 
total_req = 3750 

Dual Bus Interface Util: 
issued_total_row = 5604 
issued_total_col = 3750 
Row_Bus_Util =  0.052695 
CoL_Bus_Util = 0.035262 
Either_Row_CoL_Bus_Util = 0.083753 
Issued_on_Two_Bus_Simul_Util = 0.004203 
issued_two_Eff = 0.050185 
queue_avg = 0.154145 


dram_util_bins: 0 0 0 0 0 0 0 0 0 0
dram_eff_bins: 0 0 0 0 0 0 0 0 0 0
mrqq: max=11 avg=0.154145
Memory Partition 31: 
Cache L2_bank_062:
MSHR contents

Cache L2_bank_063:
MSHR contents

In Dram Latency Queue (total = 0): 
DRAM[31]: 16 bks, busW=16 BL=2 CL=12, tRRD=3 tCCD=1, tRCD=12 tRAS=28 tRP=12 tRC=40
n_cmd=106348 n_nop=97361 n_act=2815 n_pre=2799 n_ref_event=0 n_req=3116 n_rd=2430 n_rd_L2_A=0 n_write=0 n_wr_bk=1372 bw_util=0.03575
n_activity=47053 dram_eff=0.0808
bk0: 151a 101274i bk1: 175a 100695i bk2: 161a 101071i bk3: 166a 100834i bk4: 170a 100807i bk5: 144a 101980i bk6: 155a 101082i bk7: 155a 101192i bk8: 161a 101002i bk9: 153a 101154i bk10: 163a 101534i bk11: 177a 100760i bk12: 119a 101978i bk13: 126a 101529i bk14: 131a 101234i bk15: 123a 101778i 

------------------------------------------------------------------------

Row_Buffer_Locality = 0.096598
Row_Buffer_Locality_read = 0.123868
Row_Buffer_Locality_write = 0.000000
Bank_Level_Parallism = 2.434738
Bank_Level_Parallism_Col = 1.663450
Bank_Level_Parallism_Ready = 1.047606
write_to_read_ratio_blp_rw_average = 0.262124
GrpLevelPara = 1.479350 

BW Util details:
bwutil = 0.035751 
total_CMD = 106348 
util_bw = 3802 
Wasted_Col = 19803 
Wasted_Row = 11216 
Idle = 71527 

BW Util Bottlenecks: 
RCDc_limit = 22283 
RCDWRc_limit = 5733 
WTRc_limit = 4723 
RTWc_limit = 3515 
CCDLc_limit = 1762 
rwq = 0 
CCDLc_limit_alone = 1303 
WTRc_limit_alone = 4383 
RTWc_limit_alone = 3396 

Commands details: 
total_CMD = 106348 
n_nop = 97361 
Read = 2430 
Write = 0 
L2_Alloc = 0 
L2_WB = 1372 
n_act = 2815 
n_pre = 2799 
n_ref = 0 
n_req = 3116 
total_req = 3802 

Dual Bus Interface Util: 
issued_total_row = 5614 
issued_total_col = 3802 
Row_Bus_Util =  0.052789 
CoL_Bus_Util = 0.035751 
Either_Row_CoL_Bus_Util = 0.084506 
Issued_on_Two_Bus_Simul_Util = 0.004034 
issued_two_Eff = 0.047736 
queue_avg = 0.129387 


dram_util_bins: 0 0 0 0 0 0 0 0 0 0
dram_eff_bins: 0 0 0 0 0 0 0 0 0 0
mrqq: max=10 avg=0.129387

========= L2 cache stats =========
L2_cache_bank[0]: Access = 4500, Miss = 2201, Miss_rate = 0.489, Pending_hits = 0, Reservation_fails = 0
L2_cache_bank[1]: Access = 4564, Miss = 2245, Miss_rate = 0.492, Pending_hits = 0, Reservation_fails = 0
L2_cache_bank[2]: Access = 4467, Miss = 2137, Miss_rate = 0.478, Pending_hits = 0, Reservation_fails = 0
L2_cache_bank[3]: Access = 4212, Miss = 2049, Miss_rate = 0.486, Pending_hits = 0, Reservation_fails = 0
L2_cache_bank[4]: Access = 4539, Miss = 2214, Miss_rate = 0.488, Pending_hits = 0, Reservation_fails = 0
L2_cache_bank[5]: Access = 4612, Miss = 2282, Miss_rate = 0.495, Pending_hits = 0, Reservation_fails = 0
L2_cache_bank[6]: Access = 4334, Miss = 2093, Miss_rate = 0.483, Pending_hits = 0, Reservation_fails = 0
L2_cache_bank[7]: Access = 4288, Miss = 2092, Miss_rate = 0.488, Pending_hits = 0, Reservation_fails = 0
L2_cache_bank[8]: Access = 4196, Miss = 1998, Miss_rate = 0.476, Pending_hits = 0, Reservation_fails = 0
L2_cache_bank[9]: Access = 4200, Miss = 2039, Miss_rate = 0.485, Pending_hits = 0, Reservation_fails = 0
L2_cache_bank[10]: Access = 4572, Miss = 2224, Miss_rate = 0.486, Pending_hits = 0, Reservation_fails = 0
L2_cache_bank[11]: Access = 4582, Miss = 2254, Miss_rate = 0.492, Pending_hits = 0, Reservation_fails = 0
L2_cache_bank[12]: Access = 4360, Miss = 2093, Miss_rate = 0.480, Pending_hits = 0, Reservation_fails = 0
L2_cache_bank[13]: Access = 4312, Miss = 2095, Miss_rate = 0.486, Pending_hits = 0, Reservation_fails = 0
L2_cache_bank[14]: Access = 4358, Miss = 2101, Miss_rate = 0.482, Pending_hits = 0, Reservation_fails = 0
L2_cache_bank[15]: Access = 4464, Miss = 2180, Miss_rate = 0.488, Pending_hits = 0, Reservation_fails = 0
L2_cache_bank[16]: Access = 4364, Miss = 2108, Miss_rate = 0.483, Pending_hits = 0, Reservation_fails = 0
L2_cache_bank[17]: Access = 4304, Miss = 2112, Miss_rate = 0.491, Pending_hits = 0, Reservation_fails = 0
L2_cache_bank[18]: Access = 4480, Miss = 2173, Miss_rate = 0.485, Pending_hits = 0, Reservation_fails = 0
L2_cache_bank[19]: Access = 4506, Miss = 2215, Miss_rate = 0.492, Pending_hits = 0, Reservation_fails = 0
L2_cache_bank[20]: Access = 4472, Miss = 2170, Miss_rate = 0.485, Pending_hits = 0, Reservation_fails = 0
L2_cache_bank[21]: Access = 4448, Miss = 2167, Miss_rate = 0.487, Pending_hits = 0, Reservation_fails = 0
L2_cache_bank[22]: Access = 4380, Miss = 2105, Miss_rate = 0.481, Pending_hits = 0, Reservation_fails = 0
L2_cache_bank[23]: Access = 4675, Miss = 2304, Miss_rate = 0.493, Pending_hits = 0, Reservation_fails = 0
L2_cache_bank[24]: Access = 4664, Miss = 2283, Miss_rate = 0.489, Pending_hits = 0, Reservation_fails = 0
L2_cache_bank[25]: Access = 4763, Miss = 2351, Miss_rate = 0.494, Pending_hits = 0, Reservation_fails = 0
L2_cache_bank[26]: Access = 4532, Miss = 2205, Miss_rate = 0.487, Pending_hits = 0, Reservation_fails = 0
L2_cache_bank[27]: Access = 4308, Miss = 2106, Miss_rate = 0.489, Pending_hits = 0, Reservation_fails = 0
L2_cache_bank[28]: Access = 4468, Miss = 2182, Miss_rate = 0.488, Pending_hits = 0, Reservation_fails = 0
L2_cache_bank[29]: Access = 4368, Miss = 2168, Miss_rate = 0.496, Pending_hits = 0, Reservation_fails = 0
L2_cache_bank[30]: Access = 4520, Miss = 2199, Miss_rate = 0.487, Pending_hits = 0, Reservation_fails = 0
L2_cache_bank[31]: Access = 4404, Miss = 2150, Miss_rate = 0.488, Pending_hits = 0, Reservation_fails = 0
L2_cache_bank[32]: Access = 4520, Miss = 2187, Miss_rate = 0.484, Pending_hits = 0, Reservation_fails = 0
L2_cache_bank[33]: Access = 4752, Miss = 2353, Miss_rate = 0.495, Pending_hits = 0, Reservation_fails = 0
L2_cache_bank[34]: Access = 4423, Miss = 2158, Miss_rate = 0.488, Pending_hits = 0, Reservation_fails = 0
L2_cache_bank[35]: Access = 4672, Miss = 2308, Miss_rate = 0.494, Pending_hits = 0, Reservation_fails = 0
L2_cache_bank[36]: Access = 4196, Miss = 2013, Miss_rate = 0.480, Pending_hits = 0, Reservation_fails = 0
L2_cache_bank[37]: Access = 4380, Miss = 2181, Miss_rate = 0.498, Pending_hits = 0, Reservation_fails = 0
L2_cache_bank[38]: Access = 4252, Miss = 2044, Miss_rate = 0.481, Pending_hits = 0, Reservation_fails = 0
L2_cache_bank[39]: Access = 4659, Miss = 2312, Miss_rate = 0.496, Pending_hits = 0, Reservation_fails = 0
L2_cache_bank[40]: Access = 4427, Miss = 2163, Miss_rate = 0.489, Pending_hits = 0, Reservation_fails = 0
L2_cache_bank[41]: Access = 4456, Miss = 2207, Miss_rate = 0.495, Pending_hits = 0, Reservation_fails = 0
L2_cache_bank[42]: Access = 4415, Miss = 2158, Miss_rate = 0.489, Pending_hits = 0, Reservation_fails = 0
L2_cache_bank[43]: Access = 4404, Miss = 2187, Miss_rate = 0.497, Pending_hits = 0, Reservation_fails = 0
L2_cache_bank[44]: Access = 4480, Miss = 2195, Miss_rate = 0.490, Pending_hits = 0, Reservation_fails = 0
L2_cache_bank[45]: Access = 4436, Miss = 2153, Miss_rate = 0.485, Pending_hits = 0, Reservation_fails = 0
L2_cache_bank[46]: Access = 4570, Miss = 2242, Miss_rate = 0.491, Pending_hits = 0, Reservation_fails = 0
L2_cache_bank[47]: Access = 4592, Miss = 2274, Miss_rate = 0.495, Pending_hits = 0, Reservation_fails = 0
L2_cache_bank[48]: Access = 4387, Miss = 2148, Miss_rate = 0.490, Pending_hits = 0, Reservation_fails = 0
L2_cache_bank[49]: Access = 4718, Miss = 2350, Miss_rate = 0.498, Pending_hits = 0, Reservation_fails = 0
L2_cache_bank[50]: Access = 4568, Miss = 2252, Miss_rate = 0.493, Pending_hits = 0, Reservation_fails = 0
L2_cache_bank[51]: Access = 4414, Miss = 2181, Miss_rate = 0.494, Pending_hits = 0, Reservation_fails = 0
L2_cache_bank[52]: Access = 4372, Miss = 2142, Miss_rate = 0.490, Pending_hits = 0, Reservation_fails = 0
L2_cache_bank[53]: Access = 4580, Miss = 2300, Miss_rate = 0.502, Pending_hits = 0, Reservation_fails = 0
L2_cache_bank[54]: Access = 4566, Miss = 2241, Miss_rate = 0.491, Pending_hits = 0, Reservation_fails = 0
L2_cache_bank[55]: Access = 4316, Miss = 2134, Miss_rate = 0.494, Pending_hits = 0, Reservation_fails = 0
L2_cache_bank[56]: Access = 4732, Miss = 2309, Miss_rate = 0.488, Pending_hits = 0, Reservation_fails = 0
L2_cache_bank[57]: Access = 4852, Miss = 2429, Miss_rate = 0.501, Pending_hits = 0, Reservation_fails = 0
L2_cache_bank[58]: Access = 4612, Miss = 2260, Miss_rate = 0.490, Pending_hits = 0, Reservation_fails = 0
L2_cache_bank[59]: Access = 4527, Miss = 2259, Miss_rate = 0.499, Pending_hits = 0, Reservation_fails = 0
L2_cache_bank[60]: Access = 4567, Miss = 2240, Miss_rate = 0.490, Pending_hits = 0, Reservation_fails = 0
L2_cache_bank[61]: Access = 4532, Miss = 2233, Miss_rate = 0.493, Pending_hits = 0, Reservation_fails = 0
L2_cache_bank[62]: Access = 4576, Miss = 2259, Miss_rate = 0.494, Pending_hits = 0, Reservation_fails = 0
L2_cache_bank[63]: Access = 4539, Miss = 2258, Miss_rate = 0.497, Pending_hits = 0, Reservation_fails = 0
L2_total_cache_accesses = 286708
L2_total_cache_misses = 140425
L2_total_cache_miss_rate = 0.4898
L2_total_cache_pending_hits = 0
L2_total_cache_reservation_fails = 0
L2_total_cache_breakdown:
	L2_cache_stats_breakdown[GLOBAL_ACC_R][HIT] = 80747
	L2_cache_stats_breakdown[GLOBAL_ACC_R][HIT_RESERVED] = 0
	L2_cache_stats_breakdown[GLOBAL_ACC_R][MISS] = 67663
	L2_cache_stats_breakdown[GLOBAL_ACC_R][RESERVATION_FAIL] = 0
	L2_cache_stats_breakdown[GLOBAL_ACC_R][SECTOR_MISS] = 7226
	L2_cache_stats_breakdown[LOCAL_ACC_R][HIT] = 0
	L2_cache_stats_breakdown[LOCAL_ACC_R][HIT_RESERVED] = 0
	L2_cache_stats_breakdown[LOCAL_ACC_R][MISS] = 0
	L2_cache_stats_breakdown[LOCAL_ACC_R][RESERVATION_FAIL] = 0
	L2_cache_stats_breakdown[LOCAL_ACC_R][SECTOR_MISS] = 0
	L2_cache_stats_breakdown[CONST_ACC_R][HIT] = 0
	L2_cache_stats_breakdown[CONST_ACC_R][HIT_RESERVED] = 0
	L2_cache_stats_breakdown[CONST_ACC_R][MISS] = 0
	L2_cache_stats_breakdown[CONST_ACC_R][RESERVATION_FAIL] = 0
	L2_cache_stats_breakdown[CONST_ACC_R][SECTOR_MISS] = 0
	L2_cache_stats_breakdown[TEXTURE_ACC_R][HIT] = 0
	L2_cache_stats_breakdown[TEXTURE_ACC_R][HIT_RESERVED] = 0
	L2_cache_stats_breakdown[TEXTURE_ACC_R][MISS] = 0
	L2_cache_stats_breakdown[TEXTURE_ACC_R][RESERVATION_FAIL] = 0
	L2_cache_stats_breakdown[TEXTURE_ACC_R][SECTOR_MISS] = 0
	L2_cache_stats_breakdown[GLOBAL_ACC_W][HIT] = 65536
	L2_cache_stats_breakdown[GLOBAL_ACC_W][HIT_RESERVED] = 0
	L2_cache_stats_breakdown[GLOBAL_ACC_W][MISS] = 0
	L2_cache_stats_breakdown[GLOBAL_ACC_W][RESERVATION_FAIL] = 0
	L2_cache_stats_breakdown[GLOBAL_ACC_W][SECTOR_MISS] = 65536
	L2_cache_stats_breakdown[LOCAL_ACC_W][HIT] = 0
	L2_cache_stats_breakdown[LOCAL_ACC_W][HIT_RESERVED] = 0
	L2_cache_stats_breakdown[LOCAL_ACC_W][MISS] = 0
	L2_cache_stats_breakdown[LOCAL_ACC_W][RESERVATION_FAIL] = 0
	L2_cache_stats_breakdown[LOCAL_ACC_W][SECTOR_MISS] = 0
	L2_cache_stats_breakdown[L1_WRBK_ACC][HIT] = 0
	L2_cache_stats_breakdown[L1_WRBK_ACC][HIT_RESERVED] = 0
	L2_cache_stats_breakdown[L1_WRBK_ACC][MISS] = 0
	L2_cache_stats_breakdown[L1_WRBK_ACC][RESERVATION_FAIL] = 0
	L2_cache_stats_breakdown[L1_WRBK_ACC][SECTOR_MISS] = 0
	L2_cache_stats_breakdown[L2_WRBK_ACC][HIT] = 0
	L2_cache_stats_breakdown[L2_WRBK_ACC][HIT_RESERVED] = 0
	L2_cache_stats_breakdown[L2_WRBK_ACC][MISS] = 0
	L2_cache_stats_breakdown[L2_WRBK_ACC][RESERVATION_FAIL] = 0
	L2_cache_stats_breakdown[L2_WRBK_ACC][SECTOR_MISS] = 0
	L2_cache_stats_breakdown[INST_ACC_R][HIT] = 0
	L2_cache_stats_breakdown[INST_ACC_R][HIT_RESERVED] = 0
	L2_cache_stats_breakdown[INST_ACC_R][MISS] = 0
	L2_cache_stats_breakdown[INST_ACC_R][RESERVATION_FAIL] = 0
	L2_cache_stats_breakdown[INST_ACC_R][SECTOR_MISS] = 0
	L2_cache_stats_breakdown[L1_WR_ALLOC_R][HIT] = 0
	L2_cache_stats_breakdown[L1_WR_ALLOC_R][HIT_RESERVED] = 0
	L2_cache_stats_breakdown[L1_WR_ALLOC_R][MISS] = 0
	L2_cache_stats_breakdown[L1_WR_ALLOC_R][RESERVATION_FAIL] = 0
	L2_cache_stats_breakdown[L1_WR_ALLOC_R][SECTOR_MISS] = 0
	L2_cache_stats_breakdown[L2_WR_ALLOC_R][HIT] = 0
	L2_cache_stats_breakdown[L2_WR_ALLOC_R][HIT_RESERVED] = 0
	L2_cache_stats_breakdown[L2_WR_ALLOC_R][MISS] = 0
	L2_cache_stats_breakdown[L2_WR_ALLOC_R][RESERVATION_FAIL] = 0
	L2_cache_stats_breakdown[L2_WR_ALLOC_R][SECTOR_MISS] = 0
	L2_cache_stats_breakdown[GLOBAL_ACC_R][TOTAL_ACCESS] = 155636
	L2_cache_stats_breakdown[GLOBAL_ACC_W][TOTAL_ACCESS] = 131072
L2_total_cache_reservation_fail_breakdown:
L2_cache_data_port_util = 0.016
L2_cache_fill_port_util = 0.008

icnt_total_pkts_mem_to_simt=286708
icnt_total_pkts_simt_to_mem=286708
LD_mem_lat_dist  0 0 0 0 0 0 0 0 0 0 0 0 0 0 0 0 0 0 0 0 0 0 0 0 0 0 0
ST_mem_lat_dist  0 0 0 0 0 0 0 0 0 0 0 0 0 0 0 0 0 0 0 0 0 0 0 0 0 0 0
----------------------------Interconnect-DETAILS--------------------------------
Req_Network_injected_packets_num = 286708
Req_Network_cycles = 141631
Req_Network_injected_packets_per_cycle =       2.0243 
Req_Network_conflicts_per_cycle =       0.0559
Req_Network_conflicts_per_cycle_util =       0.0683
Req_Bank_Level_Parallism =       2.4740
Req_Network_in_buffer_full_per_cycle =       0.0000
Req_Network_in_buffer_avg_util =       0.0030
Req_Network_out_buffer_full_per_cycle =       0.0000
Req_Network_out_buffer_avg_util =       0.0316

Reply_Network_injected_packets_num = 286708
Reply_Network_cycles = 141631
Reply_Network_injected_packets_per_cycle =        2.0243
Reply_Network_conflicts_per_cycle =        0.7414
Reply_Network_conflicts_per_cycle_util =       0.9068
Reply_Bank_Level_Parallism =       2.4759
Reply_Network_in_buffer_full_per_cycle =       0.0000
Reply_Network_in_buffer_avg_util =       0.0128
Reply_Network_out_buffer_full_per_cycle =       0.0000
Reply_Network_out_buffer_avg_util =       0.0253
----------------------------END-of-Interconnect-DETAILS-------------------------


gpgpu_simulation_time = 0 days, 0 hrs, 4 min, 4 sec (244 sec)
gpgpu_simulation_rate = 128956 (inst/sec)
gpgpu_simulation_rate = 580 (cycle/sec)
gpgpu_silicon_slowdown = 1951724x
GPGPU-Sim: detected inactive GPU simulation thread

total_us: 1 laps, 221123108 us


gen_hists: 1 laps, 221123108.000000 us/lap, 27640388.500000 us/cta

GPGPU-Sim: synchronize waiting for inactive GPU simulation
GPGPU-Sim API: Stream Manager State
GPGPU-Sim: detected inactive GPU simulation thread
GPGPU-Sim: *** exit detected ***
