

        *** GPGPU-Sim Simulator Version 4.0.0  [build gpgpu-sim_git-commit-_modified_0.0] ***


GPGPU-Sim PTX: simulation mode 0 (can change with PTX_SIM_MODE_FUNC environment variable:
               1=functional simulation only, 0=detailed performance simulator)
GPGPU-Sim PTX: overriding embedded ptx with ptx file (PTX_SIM_USE_PTX_FILE is set)
GPGPU-Sim: Configuration options:

-save_embedded_ptx                      0 # saves ptx files embedded in binary as <n>.ptx
-keep                                   0 # keep intermediate files created by GPGPU-Sim when interfacing with external programs
-gpgpu_ptx_save_converted_ptxplus                    0 # Saved converted ptxplus to a file
-gpgpu_occupancy_sm_number                   70 # The SM number to pass to ptxas when getting register usage for computing GPU occupancy. This parameter is required in the config.
-ptx_opcode_latency_int      4,13,4,5,145,21 # Opcode latencies for integers <ADD,MAX,MUL,MAD,DIV,SHFL>Default 1,1,19,25,145,32
-ptx_opcode_latency_fp          4,13,4,5,39 # Opcode latencies for single precision floating points <ADD,MAX,MUL,MAD,DIV>Default 1,1,1,1,30
-ptx_opcode_latency_dp         8,19,8,8,330 # Opcode latencies for double precision floating points <ADD,MAX,MUL,MAD,DIV>Default 8,8,8,8,335
-ptx_opcode_latency_sfu                  100 # Opcode latencies for SFU instructionsDefault 8
-ptx_opcode_latency_tesnor                   64 # Opcode latencies for Tensor instructionsDefault 64
-ptx_opcode_initiation_int          2,2,2,2,8,4 # Opcode initiation intervals for integers <ADD,MAX,MUL,MAD,DIV,SHFL>Default 1,1,4,4,32,4
-ptx_opcode_initiation_fp            2,2,2,2,4 # Opcode initiation intervals for single precision floating points <ADD,MAX,MUL,MAD,DIV>Default 1,1,1,1,5
-ptx_opcode_initiation_dp          4,4,4,4,130 # Opcode initiation intervals for double precision floating points <ADD,MAX,MUL,MAD,DIV>Default 8,8,8,8,130
-ptx_opcode_initiation_sfu                    8 # Opcode initiation intervals for sfu instructionsDefault 8
-ptx_opcode_initiation_tensor                   64 # Opcode initiation intervals for tensor instructionsDefault 64
-cdp_latency         7200,8000,100,12000,1600 # CDP API latency <cudaStreamCreateWithFlags, cudaGetParameterBufferV2_init_perWarp, cudaGetParameterBufferV2_perKernel, cudaLaunchDeviceV2_init_perWarp, cudaLaunchDevicV2_perKernel>Default 7200,8000,100,12000,1600
-network_mode                           2 # Interconnection network mode
-inter_config_file                   mesh # Interconnection network config file
-icnt_in_buffer_limit                  512 # in_buffer_limit
-icnt_out_buffer_limit                  512 # out_buffer_limit
-icnt_subnets                           2 # subnets
-icnt_arbiter_algo                      1 # arbiter_algo
-icnt_verbose                           0 # inct_verbose
-icnt_grant_cycles                      1 # grant_cycles
-gpgpu_ptx_use_cuobjdump                    1 # Use cuobjdump to extract ptx and sass from binaries
-gpgpu_experimental_lib_support                    0 # Try to extract code from cuda libraries [Broken because of unknown cudaGetExportTable]
-checkpoint_option                      0 #  checkpointing flag (0 = no checkpoint)
-checkpoint_kernel                      1 #  checkpointing during execution of which kernel (1- 1st kernel)
-checkpoint_CTA                         0 #  checkpointing after # of CTA (< less than total CTA)
-resume_option                          0 #  resume flag (0 = no resume)
-resume_kernel                          0 #  Resume from which kernel (1= 1st kernel)
-resume_CTA                             0 #  resume from which CTA 
-checkpoint_CTA_t                       0 #  resume from which CTA 
-checkpoint_insn_Y                      0 #  resume from which CTA 
-gpgpu_ptx_convert_to_ptxplus                    0 # Convert SASS (native ISA) to ptxplus and run ptxplus
-gpgpu_ptx_force_max_capability                   70 # Force maximum compute capability
-gpgpu_ptx_inst_debug_to_file                    0 # Dump executed instructions' debug information to file
-gpgpu_ptx_inst_debug_file       inst_debug.txt # Executed instructions' debug output file
-gpgpu_ptx_inst_debug_thread_uid                    1 # Thread UID for executed instructions' debug output
-gpgpu_n_mem_for_l2wb_pcommit                   32 # number of memory modules (e.g. memory controllers) in gpu
-gpgpu_n_sub_partition_per_mchannel_for_l2wb_pcommit                    2 # number of memory subpartition in each memory module
-gpgpu_dl2_bsize_for_l2wb_pcommit                  128 # default 128 bytes
-gpgpu_simd_model                       1 # 1 = post-dominator
-gpgpu_shader_core_pipeline              2048:32 # shader core pipeline config, i.e., {<nthread>:<warpsize>}
-gpgpu_tex_cache:l1  N:4:128:256,L:R:m:N:L,T:512:8,128:2 # per-shader L1 texture cache  (READ-ONLY) config  {<nsets>:<bsize>:<assoc>,<rep>:<wr>:<alloc>:<wr_alloc>,<mshr>:<N>:<merge>,<mq>:<rf>}
-gpgpu_const_cache:l1 N:128:64:8,L:R:f:N:L,S:2:64,4 # per-shader L1 constant memory cache  (READ-ONLY) config  {<nsets>:<bsize>:<assoc>,<rep>:<wr>:<alloc>:<wr_alloc>,<mshr>:<N>:<merge>,<mq>} 
-gpgpu_cache:il1     N:64:128:16,L:R:f:N:L,S:2:48,4 # shader L1 instruction cache config  {<nsets>:<bsize>:<assoc>,<rep>:<wr>:<alloc>:<wr_alloc>,<mshr>:<N>:<merge>,<mq>} 
-gpgpu_cache:dl1     S:1:128:256,L:L:s:N:L,A:256:8,16:0,32 # per-shader L1 data cache config  {<nsets>:<bsize>:<assoc>,<rep>:<wr>:<alloc>:<wr_alloc>,<mshr>:<N>:<merge>,<mq> | none}
-gpgpu_l1_banks                         4 # The number of L1 cache banks
-gpgpu_l1_banks_byte_interleaving                   32 # l1 banks byte interleaving granularity
-gpgpu_l1_banks_hashing_function                    0 # l1 banks hashing function
-gpgpu_l1_latency                      20 # L1 Hit Latency
-gpgpu_smem_latency                    20 # smem Latency
-gpgpu_cache:dl1PrefL1                 none # per-shader L1 data cache config  {<nsets>:<bsize>:<assoc>,<rep>:<wr>:<alloc>:<wr_alloc>,<mshr>:<N>:<merge>,<mq> | none}
-gpgpu_cache:dl1PrefShared                 none # per-shader L1 data cache config  {<nsets>:<bsize>:<assoc>,<rep>:<wr>:<alloc>:<wr_alloc>,<mshr>:<N>:<merge>,<mq> | none}
-gpgpu_gmem_skip_L1D                    0 # global memory access skip L1D cache (implements -Xptxas -dlcm=cg, default=no skip)
-gpgpu_perfect_mem                      0 # enable perfect memory mode (no cache miss)
-n_regfile_gating_group                    4 # group of lanes that should be read/written together)
-gpgpu_clock_gated_reg_file                    0 # enable clock gated reg file for power calculations
-gpgpu_clock_gated_lanes                    0 # enable clock gated lanes for power calculations
-gpgpu_shader_registers                65536 # Number of registers per shader core. Limits number of concurrent CTAs. (default 8192)
-gpgpu_registers_per_block                65536 # Maximum number of registers per CTA. (default 8192)
-gpgpu_ignore_resources_limitation                    0 # gpgpu_ignore_resources_limitation (default 0)
-gpgpu_shader_cta                      32 # Maximum number of concurrent CTAs in shader (default 8)
-gpgpu_num_cta_barriers                   16 # Maximum number of named barriers per CTA (default 16)
-gpgpu_n_clusters                      80 # number of processing clusters
-gpgpu_n_cores_per_cluster                    1 # number of simd cores per cluster
-gpgpu_n_cluster_ejection_buffer_size                   32 # number of packets in ejection buffer
-gpgpu_n_ldst_response_buffer_size                    2 # number of response packets in ld/st unit ejection buffer
-gpgpu_shmem_per_block                65536 # Size of shared memory per thread block or CTA (default 48kB)
-gpgpu_shmem_size                   98304 # Size of shared memory per shader core (default 16kB)
-gpgpu_adaptive_cache_config            536870913 # adaptive_cache_config
-gpgpu_shmem_sizeDefault                98304 # Size of shared memory per shader core (default 16kB)
-gpgpu_shmem_size_PrefL1                16384 # Size of shared memory per shader core (default 16kB)
-gpgpu_shmem_size_PrefShared                16384 # Size of shared memory per shader core (default 16kB)
-gpgpu_shmem_num_banks                   32 # Number of banks in the shared memory in each shader core (default 16)
-gpgpu_shmem_limited_broadcast                    0 # Limit shared memory to do one broadcast per cycle (default on)
-gpgpu_shmem_warp_parts                    1 # Number of portions a warp is divided into for shared memory bank conflict check 
-gpgpu_mem_unit_ports                    1 # The number of memory transactions allowed per core cycle
-gpgpu_shmem_warp_parts                    1 # Number of portions a warp is divided into for shared memory bank conflict check 
-gpgpu_warpdistro_shader                   -1 # Specify which shader core to collect the warp size distribution from
-gpgpu_warp_issue_shader                    0 # Specify which shader core to collect the warp issue distribution from
-gpgpu_local_mem_map                    1 # Mapping from local memory space address to simulated GPU physical address space (default = enabled)
-gpgpu_num_reg_banks                   16 # Number of register banks (default = 8)
-gpgpu_reg_bank_use_warp_id                    0 # Use warp ID in mapping registers to banks (default = off)
-gpgpu_sub_core_model                    1 # Sub Core Volta/Pascal model (default = off)
-gpgpu_enable_specialized_operand_collector                    0 # enable_specialized_operand_collector
-gpgpu_operand_collector_num_units_sp                    4 # number of collector units (default = 4)
-gpgpu_operand_collector_num_units_dp                    0 # number of collector units (default = 0)
-gpgpu_operand_collector_num_units_sfu                    4 # number of collector units (default = 4)
-gpgpu_operand_collector_num_units_int                    0 # number of collector units (default = 0)
-gpgpu_operand_collector_num_units_tensor_core                    4 # number of collector units (default = 4)
-gpgpu_operand_collector_num_units_mem                    2 # number of collector units (default = 2)
-gpgpu_operand_collector_num_units_gen                    8 # number of collector units (default = 0)
-gpgpu_operand_collector_num_in_ports_sp                    1 # number of collector unit in ports (default = 1)
-gpgpu_operand_collector_num_in_ports_dp                    0 # number of collector unit in ports (default = 0)
-gpgpu_operand_collector_num_in_ports_sfu                    1 # number of collector unit in ports (default = 1)
-gpgpu_operand_collector_num_in_ports_int                    0 # number of collector unit in ports (default = 0)
-gpgpu_operand_collector_num_in_ports_tensor_core                    1 # number of collector unit in ports (default = 1)
-gpgpu_operand_collector_num_in_ports_mem                    1 # number of collector unit in ports (default = 1)
-gpgpu_operand_collector_num_in_ports_gen                    8 # number of collector unit in ports (default = 0)
-gpgpu_operand_collector_num_out_ports_sp                    1 # number of collector unit in ports (default = 1)
-gpgpu_operand_collector_num_out_ports_dp                    0 # number of collector unit in ports (default = 0)
-gpgpu_operand_collector_num_out_ports_sfu                    1 # number of collector unit in ports (default = 1)
-gpgpu_operand_collector_num_out_ports_int                    0 # number of collector unit in ports (default = 0)
-gpgpu_operand_collector_num_out_ports_tensor_core                    1 # number of collector unit in ports (default = 1)
-gpgpu_operand_collector_num_out_ports_mem                    1 # number of collector unit in ports (default = 1)
-gpgpu_operand_collector_num_out_ports_gen                    8 # number of collector unit in ports (default = 0)
-gpgpu_coalesce_arch                   60 # Coalescing arch (GT200 = 13, Fermi = 20)
-gpgpu_num_sched_per_core                    4 # Number of warp schedulers per core
-gpgpu_max_insn_issue_per_warp                    1 # Max number of instructions that can be issued per warp in one cycle by scheduler (either 1 or 2)
-gpgpu_dual_issue_diff_exec_units                    1 # should dual issue use two different execution unit resources (Default = 1)
-gpgpu_simt_core_sim_order                    1 # Select the simulation order of cores in a cluster (0=Fix, 1=Round-Robin)
-gpgpu_pipeline_widths 4,4,4,4,4,4,4,4,4,4,8,4,4 # Pipeline widths ID_OC_SP,ID_OC_DP,ID_OC_INT,ID_OC_SFU,ID_OC_MEM,OC_EX_SP,OC_EX_DP,OC_EX_INT,OC_EX_SFU,OC_EX_MEM,EX_WB,ID_OC_TENSOR_CORE,OC_EX_TENSOR_CORE
-gpgpu_tensor_core_avail                    1 # Tensor Core Available (default=0)
-gpgpu_num_sp_units                     4 # Number of SP units (default=1)
-gpgpu_num_dp_units                     4 # Number of DP units (default=0)
-gpgpu_num_int_units                    4 # Number of INT units (default=0)
-gpgpu_num_sfu_units                    4 # Number of SF units (default=1)
-gpgpu_num_tensor_core_units                    4 # Number of tensor_core units (default=1)
-gpgpu_num_mem_units                    1 # Number if ldst units (default=1) WARNING: not hooked up to anything
-gpgpu_scheduler                      gto # Scheduler configuration: < lrr | gto | two_level_active > If two_level_active:<num_active_warps>:<inner_prioritization>:<outer_prioritization>For complete list of prioritization values see shader.h enum scheduler_prioritization_typeDefault: gto
-gpgpu_concurrent_kernel_sm                    0 # Support concurrent kernels on a SM (default = disabled)
-gpgpu_perfect_inst_const_cache                    1 # perfect inst and const cache mode, so all inst and const hits in the cache(default = disabled)
-gpgpu_inst_fetch_throughput                    4 # the number of fetched intruction per warp each cycle
-gpgpu_reg_file_port_throughput                    2 # the number ports of the register file
-specialized_unit_1         0,4,4,4,4,BRA # specialized unit config {<enabled>,<num_units>:<latency>:<initiation>,<ID_OC_SPEC>:<OC_EX_SPEC>,<NAME>}
-specialized_unit_2         0,4,4,4,4,BRA # specialized unit config {<enabled>,<num_units>:<latency>:<initiation>,<ID_OC_SPEC>:<OC_EX_SPEC>,<NAME>}
-specialized_unit_3         0,4,4,4,4,BRA # specialized unit config {<enabled>,<num_units>:<latency>:<initiation>,<ID_OC_SPEC>:<OC_EX_SPEC>,<NAME>}
-specialized_unit_4         0,4,4,4,4,BRA # specialized unit config {<enabled>,<num_units>:<latency>:<initiation>,<ID_OC_SPEC>:<OC_EX_SPEC>,<NAME>}
-specialized_unit_5         0,4,4,4,4,BRA # specialized unit config {<enabled>,<num_units>:<latency>:<initiation>,<ID_OC_SPEC>:<OC_EX_SPEC>,<NAME>}
-specialized_unit_6         0,4,4,4,4,BRA # specialized unit config {<enabled>,<num_units>:<latency>:<initiation>,<ID_OC_SPEC>:<OC_EX_SPEC>,<NAME>}
-specialized_unit_7         0,4,4,4,4,BRA # specialized unit config {<enabled>,<num_units>:<latency>:<initiation>,<ID_OC_SPEC>:<OC_EX_SPEC>,<NAME>}
-specialized_unit_8         0,4,4,4,4,BRA # specialized unit config {<enabled>,<num_units>:<latency>:<initiation>,<ID_OC_SPEC>:<OC_EX_SPEC>,<NAME>}
-gpgpu_perf_sim_memcpy                    1 # Fill the L2 cache on memcpy
-gpgpu_simple_dram_model                    0 # simple_dram_model with fixed latency and BW
-gpgpu_dram_scheduler                    1 # 0 = fifo, 1 = FR-FCFS (defaul)
-gpgpu_dram_partition_queues          64:64:64:64 # i2$:$2d:d2$:$2i
-l2_ideal                               0 # Use a ideal L2 cache that always hit
-gpgpu_cache:dl2     S:32:128:24,L:B:m:L:P,A:192:4,32:0,32 # unified banked L2 data cache config  {<nsets>:<bsize>:<assoc>,<rep>:<wr>:<alloc>:<wr_alloc>,<mshr>:<N>:<merge>,<mq>}
-gpgpu_cache:dl2_texture_only                    0 # L2 cache used for texture only
-gpgpu_n_mem                           32 # number of memory modules (e.g. memory controllers) in gpu
-gpgpu_n_sub_partition_per_mchannel                    2 # number of memory subpartition in each memory module
-gpgpu_n_mem_per_ctrlr                    1 # number of memory chips per memory controller
-gpgpu_memlatency_stat                   14 # track and display latency statistics 0x2 enables MC, 0x4 enables queue logs
-gpgpu_frfcfs_dram_sched_queue_size                   64 # 0 = unlimited (default); # entries per chip
-gpgpu_dram_return_queue_size                  192 # 0 = unlimited (default); # entries per chip
-gpgpu_dram_buswidth                   16 # default = 4 bytes (8 bytes per cycle at DDR)
-gpgpu_dram_burst_length                    2 # Burst length of each DRAM request (default = 4 data bus cycle)
-dram_data_command_freq_ratio                    2 # Frequency ratio between DRAM data bus and command bus (default = 2 times, i.e. DDR)
-gpgpu_dram_timing_opt nbk=16:CCD=1:RRD=3:RCD=12:RAS=28:RP=12:RC=40: CL=12:WL=2:CDLR=3:WR=10:nbkgrp=4:CCDL=2:RTPL=3 # DRAM timing parameters = {nbk:tCCD:tRRD:tRCD:tRAS:tRP:tRC:CL:WL:tCDLR:tWR:nbkgrp:tCCDL:tRTPL}
-gpgpu_l2_rop_latency                  160 # ROP queue latency (default 85)
-dram_latency                         200 # DRAM latency (default 30)
-dram_write_latency                   600 # DRAM write latency (default 100)
-dram_dual_bus_interface                    1 # dual_bus_interface (default = 0) 
-dram_bnk_indexing_policy                    0 # dram_bnk_indexing_policy (0 = normal indexing, 1 = Xoring with the higher bits) (Default = 0)
-dram_bnkgrp_indexing_policy                    1 # dram_bnkgrp_indexing_policy (0 = take higher bits, 1 = take lower bits) (Default = 0)
-dram_seperate_write_queue_enable                    0 # Seperate_Write_Queue_Enable
-dram_write_queue_size             32:28:16 # Write_Queue_Size
-dram_elimnate_rw_turnaround                    0 # elimnate_rw_turnaround i.e set tWTR and tRTW = 0
-icnt_flit_size                        40 # icnt_flit_size
-gpgpu_mem_addr_mapping dramid@8;00000000.00000000.00000000.00000000.0000RRRR.RRRRRRRR.RBBBCCCB.CCCSSSSS # mapping memory address to dram model {dramid@<start bit>;<memory address map>}
-gpgpu_mem_addr_test                    0 # run sweep test to check address mapping for aliased address
-gpgpu_mem_address_mask                    1 # 0 = old addressing mask, 1 = new addressing mask, 2 = new add. mask + flipped bank sel and chip sel bits
-gpgpu_memory_partition_indexing                    0 # 0 = no indexing, 1 = bitwise xoring, 2 = IPoly, 3 = custom indexing
-gpuwattch_xml_file         gpuwattch.xml # GPUWattch XML file
-power_simulation_enabled                    0 # Turn on power simulator (1=On, 0=Off)
-power_per_cycle_dump                    0 # Dump detailed power output each cycle
-power_trace_enabled                    0 # produce a file for the power trace (1=On, 0=Off)
-power_trace_zlevel                     6 # Compression level of the power trace output log (0=no comp, 9=highest)
-steady_power_levels_enabled                    0 # produce a file for the steady power levels (1=On, 0=Off)
-steady_state_definition                  8:4 # allowed deviation:number of samples
-gpgpu_max_cycle                        0 # terminates gpu simulation early (0 = no limit)
-gpgpu_max_insn                         0 # terminates gpu simulation early (0 = no limit)
-gpgpu_max_cta                          0 # terminates gpu simulation early (0 = no limit)
-gpgpu_max_completed_cta                    0 # terminates gpu simulation early (0 = no limit)
-gpgpu_runtime_stat                   500 # display runtime statistics such as dram utilization {<freq>:<flag>}
-liveness_message_freq                    1 # Minimum number of seconds between simulation liveness messages (0 = always print)
-gpgpu_compute_capability_major                    7 # Major compute capability version number
-gpgpu_compute_capability_minor                    0 # Minor compute capability version number
-gpgpu_flush_l1_cache                    1 # Flush L1 cache at the end of each kernel call
-gpgpu_flush_l2_cache                    0 # Flush L2 cache at the end of each kernel call
-gpgpu_deadlock_detect                    1 # Stop the simulation at deadlock (1=on (default), 0=off)
-gpgpu_ptx_instruction_classification                    0 # if enabled will classify ptx instruction types per kernel (Max 255 kernels now)
-gpgpu_ptx_sim_mode                     0 # Select between Performance (default) or Functional simulation (1)
-gpgpu_clock_domains 1132.0:1132.0:1132.0:850.0 # Clock Domain Frequencies in MhZ {<Core Clock>:<ICNT Clock>:<L2 Clock>:<DRAM Clock>}
-gpgpu_max_concurrent_kernel                    8 # maximum kernels that can run concurrently on GPU
-gpgpu_cflog_interval                    0 # Interval between each snapshot in control flow logger
-visualizer_enabled               1d1fd91f79a04be419695e7e30b34791  /home/pli11/Desktop/re_test/megakv/insert/run
Extracting PTX file and ptxas options    1: run.1.sm_70.ptx -arch=sm_70
      0 # Turn on visualizer output (1=On, 0=Off)
-visualizer_outputfile                 NULL # Specifies the output log file for visualizer
-visualizer_zlevel                      6 # Compression level of the visualizer output log (0=no comp, 9=highest)
-gpgpu_stack_size_limit                 1024 # GPU thread stack size
-gpgpu_heap_size_limit              8388608 # GPU malloc heap size 
-gpgpu_runtime_sync_depth_limit                    2 # GPU device runtime synchronize depth
-gpgpu_runtime_pending_launch_count_limit                 2048 # GPU device runtime pending launch count
-trace_enabled                          0 # Turn on traces
-trace_components                    none # comma seperated list of traces to enable. Complete list found in trace_streams.tup. Default none
-trace_sampling_core                    0 # The core which is printed using CORE_DPRINTF. Default 0
-trace_sampling_memory_partition                   -1 # The memory partition which is printed using MEMPART_DPRINTF. Default -1 (i.e. all)
-enable_ptx_file_line_stats                    1 # Turn on PTX source line statistic profiling. (1 = On)
-ptx_line_stats_filename gpgpu_inst_stats.txt # Output file for PTX source line statistics.
-gpgpu_kernel_launch_latency                 5000 # Kernel launch latency in cycles. Default: 0
-gpgpu_cdp_enabled                      0 # Turn on CDP
-gpgpu_TB_launch_latency                    0 # thread block launch latency in cycles. Default: 0
DRAM Timing Options:
nbk                                    16 # number of banks
CCD                                     1 # column to column delay
RRD                                     3 # minimal delay between activation of rows in different banks
RCD                                    12 # row to column delay
RAS                                    28 # time needed to activate row
RP                                     12 # time needed to precharge (deactivate) row
RC                                     40 # row cycle time
CDLR                                    3 # switching from write to read (changes tWTR)
WR                                     10 # last data-in to row precharge
CL                                     12 # CAS latency
WL                                      2 # Write latency
nbkgrp                                  4 # number of bank groups
CCDL                                    2 # column to column delay between accesses to different bank groups
RTPL                                    3 # read to precharge delay between accesses to different bank groups
Total number of memory sub partition = 64
addr_dec_mask[CHIP]  = 0000000000001f00 	high:13 low:8
addr_dec_mask[BK]    = 00000000000e2000 	high:20 low:13
addr_dec_mask[ROW]   = 00000001fff00000 	high:33 low:20
addr_dec_mask[COL]   = 000000000001c0ff 	high:17 low:0
addr_dec_mask[BURST] = 000000000000001f 	high:5 low:0
sub_partition_id_mask = 0000000000002000
GPGPU-Sim uArch: clock freqs: 1132000000.000000:1132000000.000000:1132000000.000000:850000000.000000
GPGPU-Sim uArch: clock periods: 0.00000000088339222615:0.00000000088339222615:0.00000000088339222615:0.00000000117647058824
*** Initializing Memory Statistics ***
GPGPU-Sim uArch: performance model initialization complete.
self exe links to: /home/pli11/Desktop/re_test/megakv/insert/run
self exe links to: /home/pli11/Desktop/re_test/megakv/insert/run
10.1
GPGPU-Sim PTX: __cudaRegisterFatBinary, fat_cubin_handle = 1, filename=default
self exe links to: /home/pli11/Desktop/re_test/megakv/insert/run
Running md5sum using "md5sum /home/pli11/Desktop/re_test/megakv/insert/run "
self exe links to: /home/pli11/Desktop/re_test/megakv/insert/run
Extracting specific PTX file named run.1.sm_70.ptx 
GPGPU-Sim PTX: __cudaRegisterFunction _Z18hash_insert_cuckooP8bucket_sPP7ielem_sPi : hostFun 0x0x4030de, fat_cubin_handle = 1
GPGPU-Sim PTX: Parsing run.1.sm_70.ptx
GPGPU-Sim PTX: allocating stack frame region for .param "func_retval0" from 0x0 to 0x4
GPGPU-Sim PTX: allocating stack frame region for .param "vprintf_param_0" from 0x4 to 0xc
GPGPU-Sim PTX: allocating stack frame region for .param "vprintf_param_1" from 0xc to 0x14
GPGPU-Sim PTX: allocating global region for "$str" from 0x100 to 0x114 (global memory space)
GPGPU-Sim PTX: allocating stack frame region for .param "param0" from 0x0 to 0x8
GPGPU-Sim PTX: allocating stack frame region for .param "param1" from 0x8 to 0x10
GPGPU-Sim PTX: allocating stack frame region for .param "retval0" from 0x10 to 0x14
GPGPU-Sim PTX: instruction assembly for function '_Z23hash_insert_cuckoo_nvmbP8bucket_sPP7ielem_sPi'...   done.
GPGPU-Sim PTX: allocating stack frame region for .param "param0" from 0x0 to 0x8
GPGPU-Sim PTX: allocating stack frame region for .param "param1" from 0x8 to 0x10
GPGPU-Sim PTX: allocating stack frame region for .param "retval0" from 0x10 to 0x14
GPGPU-Sim PTX: instruction assembly for function '_Z23hash_insert_cuckoo_nvmoP8bucket_sPP7ielem_sPi'...   done.
GPGPU-Sim PTX: allocating stack frame region for .param "param0" from 0x0 to 0x8
GPGPU-Sim PTX: allocating stack frame region for .param "param1" from 0x8 to 0x10
GPGPU-Sim PTX: allocating stack frame region for .param "retval0" from 0x10 to 0x14
GPGPU-Sim PTX: instruction assembly for function '_Z23hash_insert_cuckoo_nvmuP8bucket_sPP7ielem_sPi'...   done.
GPGPU-Sim PTX: instruction assembly for function '_Z11kernel_l2wbv'...   done.
GPGPU-Sim PTX: instruction assembly for function '_Z15kernel_l2wb_pctv'...   done.
GPGPU-Sim PTX: allocating stack frame region for .param "param0" from 0x0 to 0x8
GPGPU-Sim PTX: allocating stack frame region for .param "param1" from 0x8 to 0x10
GPGPU-Sim PTX: allocating stack frame region for .param "retval0" from 0x10 to 0x14
GPGPU-Sim PTX: instruction assembly for function '_Z18hash_insert_cuckooP8bucket_sPP7ielem_sPi'...   done.
GPGPU-Sim PTX: finished parsing EMBEDDED .ptx file run.1.sm_70.ptx
GPGPU-Sim PTX: loading globals with explicit initializers... 
GPGPU-Sim PTX:     initializing '$str' ...  wrote 20 bytes
GPGPU-Sim PTX: finished loading globals (20 bytes total).
GPGPU-Sim PTX: loading constants with explicit initializers...  done.
GPGPU-Sim PTX: Loading PTXInfo from run.1.sm_70.ptx
GPGPU-Sim PTX: Kernel '_Z18hash_insert_cuckooP8bucket_sPP7ielem_sPi' : regs=32, lmem=0, smem=0, cmem=376
GPGPU-Sim PTX: Kernel '_Z15kernel_l2wb_pctv' : regs=8, lmem=0, smem=0, cmem=352
GPGPU-Sim PTX: Kernel '_Z11kernel_l2wbv' : regs=8, lmem=0, smem=0, cmem=352
GPGPU-Sim PTX: Kernel '_Z23hash_insert_cuckoo_nvmuP8bucket_sPP7ielem_sPi' : regs=35, lmem=0, smem=0, cmem=376
GPGPU-Sim PTX: Kernel '_Z23hash_insert_cuckoo_nvmoP8bucket_sPP7ielem_sPi' : regs=34, lmem=0, smem=0, cmem=376
GPGPU-Sim PTX: Kernel '_Z23hash_insert_cuckoo_nvmbP8bucket_sPP7ielem_sPi' : regs=33, lmem=0, smem=0, cmem=376
GPGPU-Sim PTX: __cudaRegisterFunction _Z15kernel_l2wb_pctv : hostFun 0x0x402fa2, fat_cubin_handle = 1
GPGPU-Sim PTX: __cudaRegisterFunction _Z11kernel_l2wbv : hostFun 0x0x402ea8, fat_cubin_handle = 1
GPGPU-Sim PTX: __cudaRegisterFunction _Z23hash_insert_cuckoo_nvmuP8bucket_sPP7ielem_sPi : hostFun 0x0x402d8c, fat_cubin_handle = 1
GPGPU-Sim PTX: __cudaRegisterFunction _Z23hash_insert_cuckoo_nvmoP8bucket_sPP7ielem_sPi : hostFun 0x0x402c2e, fat_cubin_handle = 1
GPGPU-Sim PTX: __cudaRegisterFunction _Z23hash_insert_cuckoo_nvmbP8bucket_sPP7ielem_sPi : hostFun 0x0x402ad0, fat_cubin_handle = 1
GPGPU-Sim PTX: cudaStreamCreate
GPGPU-Sim: synchronize waiting for inactive GPU simulation
GPGPU-Sim API: Stream Manager State
GPGPU-Sim: detected inactive GPU simulation thread
GPGPU-Sim: synchronize waiting for inactive GPU simulation
GPGPU-Sim API: Stream Manager State
GPGPU-Sim API:    stream 1 has 2 operations
GPGPU-Sim API:       0 :  stream operation memcpy host-to-device
GPGPU-Sim API:       1 :  stream operation memcpy host-to-device
GPGPU-Sim: detected inactive GPU simulation thread
GPGPU-Sim PTX: Setting up arguments for 8 bytes starting at 0x7ffd5da778c8..
GPGPU-Sim PTX: Setting up arguments for 8 bytes starting at 0x7ffd5da778c0..
GPGPU-Sim PTX: Setting up arguments for 8 bytes starting at 0x7ffd5da778b8..

GPGPU-Sim PTX: cudaLaunch for 0x0x402c2e (mode=performance simulation) on stream 1
GPGPU-Sim PTX: finding reconvergence points for '_Z23hash_insert_cuckoo_nvmoP8bucket_sPP7ielem_sPi'...
GPGPU-Sim PTX: Finding dominators for '_Z23hash_insert_cuckoo_nvmoP8bucket_sPP7ielem_sPi'...
GPGPU-Sim PTX: Finding immediate dominators for '_Z23hash_insert_cuckoo_nvmoP8bucket_sPP7ielem_sPi'...
GPGPU-Sim PTX: Finding postdominators for '_Z23hash_insert_cuckoo_nvmoP8bucket_sPP7ielem_sPi'...
GPGPU-Sim PTX: Finding immediate postdominators for '_Z23hash_insert_cuckoo_nvmoP8bucket_sPP7ielem_sPi'...
GPGPU-Sim PTX: pre-decoding instructions for '_Z23hash_insert_cuckoo_nvmoP8bucket_sPP7ielem_sPi'...
GPGPU-Sim PTX: reconvergence points for _Z23hash_insert_cuckoo_nvmoP8bucket_sPP7ielem_sPi...
GPGPU-Sim PTX:  1 (potential) branch divergence @  PC=0x850 (run.1.sm_70.ptx:428) @%p2 bra BB1_40;
GPGPU-Sim PTX:    immediate post dominator      @  PC=0x1058 (run.1.sm_70.ptx:800) ret;
GPGPU-Sim PTX:  2 (potential) branch divergence @  PC=0x890 (run.1.sm_70.ptx:437) bra.uni BB1_2;
GPGPU-Sim PTX:    immediate post dominator      @  PC=0x8f8 (run.1.sm_70.ptx:459) cvt.s64.s32%rd5, %r130;
GPGPU-Sim PTX:  3 (potential) branch divergence @  PC=0x8b8 (run.1.sm_70.ptx:444) @%p30 bra BB1_39;
GPGPU-Sim PTX:    immediate post dominator      @  PC=0x1038 (run.1.sm_70.ptx:794) cvt.u32.u64%r128, %rd5;
GPGPU-Sim PTX:  4 (potential) branch divergence @  PC=0x8f0 (run.1.sm_70.ptx:456) bra.uni BB1_39;
GPGPU-Sim PTX:    immediate post dominator      @  PC=0x1038 (run.1.sm_70.ptx:794) cvt.u32.u64%r128, %rd5;
GPGPU-Sim PTX:  5 (potential) branch divergence @  PC=0x930 (run.1.sm_70.ptx:466) @%p3 bra BB1_38;
GPGPU-Sim PTX:    immediate post dominator      @  PC=0x1038 (run.1.sm_70.ptx:794) cvt.u32.u64%r128, %rd5;
GPGPU-Sim PTX:  6 (potential) branch divergence @  PC=0x938 (run.1.sm_70.ptx:467) bra.uni BB1_3;
GPGPU-Sim PTX:    immediate post dominator      @  PC=0x980 (run.1.sm_70.ptx:495) ld.u32 %r12, [%rd6+4];
GPGPU-Sim PTX:  7 (potential) branch divergence @  PC=0x978 (run.1.sm_70.ptx:492) bra.uni BB1_39;
GPGPU-Sim PTX:    immediate post dominator      @  PC=0x1038 (run.1.sm_70.ptx:794) cvt.u32.u64%r128, %rd5;
GPGPU-Sim PTX:  8 (potential) branch divergence @  PC=0x9f0 (run.1.sm_70.ptx:509) @%p6 bra BB1_6;
GPGPU-Sim PTX:    immediate post dominator      @  PC=0x1038 (run.1.sm_70.ptx:794) cvt.u32.u64%r128, %rd5;
GPGPU-Sim PTX:  9 (potential) branch divergence @  PC=0x9f8 (run.1.sm_70.ptx:510) bra.uni BB1_4;
GPGPU-Sim PTX:    immediate post dominator      @  PC=0xb88 (run.1.sm_70.ptx:581) neg.s32 %r59, %r13;
GPGPU-Sim PTX: 10 (potential) branch divergence @  PC=0xa90 (run.1.sm_70.ptx:533) @%p10 bra BB1_10;
GPGPU-Sim PTX:    immediate post dominator      @  PC=0xb00 (run.1.sm_70.ptx:555) bar.sync 0;
GPGPU-Sim PTX: 11 (potential) branch divergence @  PC=0xad0 (run.1.sm_70.ptx:542) @%p11 bra BB1_10;
GPGPU-Sim PTX:    immediate post dominator      @  PC=0xb00 (run.1.sm_70.ptx:555) bar.sync 0;
GPGPU-Sim PTX: 12 (potential) branch divergence @  PC=0xb08 (run.1.sm_70.ptx:556) @%p10 bra BB1_14;
GPGPU-Sim PTX:    immediate post dominator      @  PC=0x1038 (run.1.sm_70.ptx:794) cvt.u32.u64%r128, %rd5;
GPGPU-Sim PTX: 13 (potential) branch divergence @  PC=0xb38 (run.1.sm_70.ptx:563) @%p13 bra BB1_7;
GPGPU-Sim PTX:    immediate post dominator      @  PC=0x1038 (run.1.sm_70.ptx:794) cvt.u32.u64%r128, %rd5;
GPGPU-Sim PTX: 14 (potential) branch divergence @  PC=0xb48 (run.1.sm_70.ptx:566) @%p14 bra BB1_39;
GPGPU-Sim PTX:    immediate post dominator      @  PC=0x1038 (run.1.sm_70.ptx:794) cvt.u32.u64%r128, %rd5;
GPGPU-Sim PTX: 15 (potential) branch divergence @  PC=0xb80 (run.1.sm_70.ptx:578) bra.uni BB1_39;
GPGPU-Sim PTX:    immediate post dominator      @  PC=0x1038 (run.1.sm_70.ptx:794) cvt.u32.u64%r128, %rd5;
GPGPU-Sim PTX: 16 (potential) branch divergence @  PC=0xbc0 (run.1.sm_70.ptx:588) @%p7 bra BB1_39;
GPGPU-Sim PTX:    immediate post dominator      @  PC=0x1038 (run.1.sm_70.ptx:794) cvt.u32.u64%r128, %rd5;
GPGPU-Sim PTX: 17 (potential) branch divergence @  PC=0xc10 (run.1.sm_70.ptx:603) bra.uni BB1_39;
GPGPU-Sim PTX:    immediate post dominator      @  PC=0x1038 (run.1.sm_70.ptx:794) cvt.u32.u64%r128, %rd5;
GPGPU-Sim PTX: 18 (potential) branch divergence @  PC=0xc90 (run.1.sm_70.ptx:621) @%p17 bra BB1_36;
GPGPU-Sim PTX:    immediate post dominator      @  PC=0x1038 (run.1.sm_70.ptx:794) cvt.u32.u64%r128, %rd5;
GPGPU-Sim PTX: 19 (potential) branch divergence @  PC=0xd00 (run.1.sm_70.ptx:639) @%p20 bra BB1_18;
GPGPU-Sim PTX:    immediate post dominator      @  PC=0xd90 (run.1.sm_70.ptx:664) bar.sync 0;
GPGPU-Sim PTX: 20 (potential) branch divergence @  PC=0xd08 (run.1.sm_70.ptx:640) bra.uni BB1_17;
GPGPU-Sim PTX:    immediate post dominator      @  PC=0xd60 (run.1.sm_70.ptx:656) neg.s32 %r100, %r30;
GPGPU-Sim PTX: 21 (potential) branch divergence @  PC=0xd28 (run.1.sm_70.ptx:646) @%p21 bra BB1_20;
GPGPU-Sim PTX:    immediate post dominator      @  PC=0xd90 (run.1.sm_70.ptx:664) bar.sync 0;
GPGPU-Sim PTX: 22 (potential) branch divergence @  PC=0xd58 (run.1.sm_70.ptx:653) bra.uni BB1_20;
GPGPU-Sim PTX:    immediate post dominator      @  PC=0xd90 (run.1.sm_70.ptx:664) bar.sync 0;
GPGPU-Sim PTX: 23 (potential) branch divergence @  PC=0xd98 (run.1.sm_70.ptx:665) @%p20 bra BB1_23;
GPGPU-Sim PTX:    immediate post dominator      @  PC=0xe10 (run.1.sm_70.ptx:696) bar.sync 0;
GPGPU-Sim PTX: 24 (potential) branch divergence @  PC=0xda0 (run.1.sm_70.ptx:666) bra.uni BB1_21;
GPGPU-Sim PTX:    immediate post dominator      @  PC=0xde0 (run.1.sm_70.ptx:683) setp.ne.s32%p23, %r1, %r148;
GPGPU-Sim PTX: 25 (potential) branch divergence @  PC=0xdb0 (run.1.sm_70.ptx:670) @%p24 bra BB1_25;
GPGPU-Sim PTX:    immediate post dominator      @  PC=0xe10 (run.1.sm_70.ptx:696) bar.sync 0;
GPGPU-Sim PTX: 26 (potential) branch divergence @  PC=0xdd8 (run.1.sm_70.ptx:680) bra.uni BB1_25;
GPGPU-Sim PTX:    immediate post dominator      @  PC=0xe10 (run.1.sm_70.ptx:696) bar.sync 0;
GPGPU-Sim PTX: 27 (potential) branch divergence @  PC=0xde8 (run.1.sm_70.ptx:684) @%p23 bra BB1_25;
GPGPU-Sim PTX:    immediate post dominator      @  PC=0xe10 (run.1.sm_70.ptx:696) bar.sync 0;
GPGPU-Sim PTX: 28 (potential) branch divergence @  PC=0xe40 (run.1.sm_70.ptx:702) @%p20 bra BB1_29;
GPGPU-Sim PTX:    immediate post dominator      @  PC=0x1038 (run.1.sm_70.ptx:794) cvt.u32.u64%r128, %rd5;
GPGPU-Sim PTX: 29 (potential) branch divergence @  PC=0xe58 (run.1.sm_70.ptx:706) @%p25 bra BB1_16;
GPGPU-Sim PTX:    immediate post dominator      @  PC=0x1038 (run.1.sm_70.ptx:794) cvt.u32.u64%r128, %rd5;
GPGPU-Sim PTX: 30 (potential) branch divergence @  PC=0xe60 (run.1.sm_70.ptx:707) bra.uni BB1_27;
GPGPU-Sim PTX:    immediate post dominator      @  PC=0xff8 (run.1.sm_70.ptx:779) setp.ne.s32%p26, %r1, %r148;
GPGPU-Sim PTX: 31 (potential) branch divergence @  PC=0xe70 (run.1.sm_70.ptx:711) @%p27 bra BB1_32;
GPGPU-Sim PTX:    immediate post dominator      @  PC=0x1038 (run.1.sm_70.ptx:794) cvt.u32.u64%r128, %rd5;
GPGPU-Sim PTX: 32 (potential) branch divergence @  PC=0xe78 (run.1.sm_70.ptx:712) bra.uni BB1_30;
GPGPU-Sim PTX:    immediate post dominator      @  PC=0x898 (run.1.sm_70.ptx:440) setp.ne.s32%p28, %r1, %r148;
GPGPU-Sim PTX: 33 (potential) branch divergence @  PC=0xe90 (run.1.sm_70.ptx:717) @%p31 bra BB1_39;
GPGPU-Sim PTX:    immediate post dominator      @  PC=0x1038 (run.1.sm_70.ptx:794) cvt.u32.u64%r128, %rd5;
GPGPU-Sim PTX: 34 (potential) branch divergence @  PC=0xea0 (run.1.sm_70.ptx:720) @%p32 bra BB1_35;
GPGPU-Sim PTX:    immediate post dominator      @  PC=0xed0 (run.1.sm_70.ptx:733) xor.b32 %r114, %r36, %r12;
GPGPU-Sim PTX: 35 (potential) branch divergence @  PC=0xf50 (run.1.sm_70.ptx:749) @%p35 bra BB1_15;
GPGPU-Sim PTX:    immediate post dominator      @  PC=0x1038 (run.1.sm_70.ptx:794) cvt.u32.u64%r128, %rd5;
GPGPU-Sim PTX: 36 (potential) branch divergence @  PC=0xf90 (run.1.sm_70.ptx:759) @%p36 bra BB1_39;
GPGPU-Sim PTX:    immediate post dominator      @  PC=0x1038 (run.1.sm_70.ptx:794) cvt.u32.u64%r128, %rd5;
GPGPU-Sim PTX: 37 (potential) branch divergence @  PC=0xff0 (run.1.sm_70.ptx:776) bra.uni BB1_39;
GPGPU-Sim PTX:    immediate post dominator      @  PC=0x1038 (run.1.sm_70.ptx:794) cvt.u32.u64%r128, %rd5;
GPGPU-Sim PTX: 38 (potential) branch divergence @  PC=0x1000 (run.1.sm_70.ptx:780) @%p26 bra BB1_39;
GPGPU-Sim PTX:    immediate post dominator      @  PC=0x1038 (run.1.sm_70.ptx:794) cvt.u32.u64%r128, %rd5;
GPGPU-Sim PTX: 39 (potential) branch divergence @  PC=0x1050 (run.1.sm_70.ptx:797) @%p37 bra BB1_2;
GPGPU-Sim PTX:    immediate post dominator      @  PC=0x1058 (run.1.sm_70.ptx:800) ret;
GPGPU-Sim PTX: ... end of reconvergence points for _Z23hash_insert_cuckoo_nvmoP8bucket_sPP7ielem_sPi
GPGPU-Sim PTX: ... done pre-decoding instructions for '_Z23hash_insert_cuckoo_nvmoP8bucket_sPP7ielem_sPi'.
GPGPU-Sim PTX: pushing kernel '_Z23hash_insert_cuckoo_nvmoP8bucket_sPP7ielem_sPi' to stream 1, gridDim= (8,1,1) blockDim = (1024,1,1) 
GPGPU-Sim: synchronize waiting for inactive GPU simulation
GPGPU-Sim API: Stream Manager State
GPGPU-Sim API:    stream 1 has 1 operations
GPGPU-Sim API:       0 :  stream operation kernel
GPGPU-Sim uArch: Shader 0 bind to kernel 1 '_Z23hash_insert_cuckoo_nvmoP8bucket_sPP7ielem_sPi'
GPGPU-Sim uArch: CTA/core = 1, limited by: regs
GPGPU-Sim: Reconfigure L1 cache to 128KB
GPGPU-Sim uArch: Shader 1 bind to kernel 1 '_Z23hash_insert_cuckoo_nvmoP8bucket_sPP7ielem_sPi'
GPGPU-Sim uArch: Shader 2 bind to kernel 1 '_Z23hash_insert_cuckoo_nvmoP8bucket_sPP7ielem_sPi'
GPGPU-Sim uArch: Shader 3 bind to kernel 1 '_Z23hash_insert_cuckoo_nvmoP8bucket_sPP7ielem_sPi'
GPGPU-Sim uArch: Shader 4 bind to kernel 1 '_Z23hash_insert_cuckoo_nvmoP8bucket_sPP7ielem_sPi'
GPGPU-Sim uArch: Shader 5 bind to kernel 1 '_Z23hash_insert_cuckoo_nvmoP8bucket_sPP7ielem_sPi'
GPGPU-Sim uArch: Shader 6 bind to kernel 1 '_Z23hash_insert_cuckoo_nvmoP8bucket_sPP7ielem_sPi'
GPGPU-Sim uArch: Shader 7 bind to kernel 1 '_Z23hash_insert_cuckoo_nvmoP8bucket_sPP7ielem_sPi'
Destroy streams for kernel 1: size 0
kernel_name = _Z23hash_insert_cuckoo_nvmoP8bucket_sPP7ielem_sPi 
kernel_launch_uid = 1 
gpu_sim_cycle = 183004
gpu_sim_insn = 32825344
gpu_ipc =     179.3695
gpu_tot_sim_cycle = 183004
gpu_tot_sim_insn = 32825344
gpu_tot_ipc =     179.3695
gpu_tot_issued_cta = 8
gpu_occupancy = 49.9636% 
gpu_tot_occupancy = 49.9636% 
max_total_param_size = 0
gpu_stall_dramfull = 0
gpu_stall_icnt2sh    = 0
partiton_level_parallism =       2.3714
partiton_level_parallism_total  =       2.3714
partiton_level_parallism_util =       2.9554
partiton_level_parallism_util_total  =       2.9554
L2_BW  =      85.9001 GB/Sec
L2_BW_total  =      85.9001 GB/Sec
gpu_total_sim_rate=131828

========= Core cache stats =========
L1I_cache:
	L1I_total_cache_accesses = 0
	L1I_total_cache_misses = 0
	L1I_total_cache_pending_hits = 0
	L1I_total_cache_reservation_fails = 0
L1D_cache:
	L1D_cache_core[0]: Access = 53312, Miss = 38191, Miss_rate = 0.716, Pending_hits = 0, Reservation_fails = 0
	L1D_cache_core[1]: Access = 53312, Miss = 38063, Miss_rate = 0.714, Pending_hits = 0, Reservation_fails = 0
	L1D_cache_core[2]: Access = 53312, Miss = 38400, Miss_rate = 0.720, Pending_hits = 0, Reservation_fails = 0
	L1D_cache_core[3]: Access = 53312, Miss = 38047, Miss_rate = 0.714, Pending_hits = 0, Reservation_fails = 0
	L1D_cache_core[4]: Access = 53312, Miss = 38341, Miss_rate = 0.719, Pending_hits = 0, Reservation_fails = 0
	L1D_cache_core[5]: Access = 53312, Miss = 38624, Miss_rate = 0.724, Pending_hits = 0, Reservation_fails = 0
	L1D_cache_core[6]: Access = 53312, Miss = 38139, Miss_rate = 0.715, Pending_hits = 0, Reservation_fails = 0
	L1D_cache_core[7]: Access = 53312, Miss = 37972, Miss_rate = 0.712, Pending_hits = 0, Reservation_fails = 0
	L1D_cache_core[8]: Access = 0, Miss = 0, Miss_rate = -nan, Pending_hits = 0, Reservation_fails = 0
	L1D_cache_core[9]: Access = 0, Miss = 0, Miss_rate = -nan, Pending_hits = 0, Reservation_fails = 0
	L1D_cache_core[10]: Access = 0, Miss = 0, Miss_rate = -nan, Pending_hits = 0, Reservation_fails = 0
	L1D_cache_core[11]: Access = 0, Miss = 0, Miss_rate = -nan, Pending_hits = 0, Reservation_fails = 0
	L1D_cache_core[12]: Access = 0, Miss = 0, Miss_rate = -nan, Pending_hits = 0, Reservation_fails = 0
	L1D_cache_core[13]: Access = 0, Miss = 0, Miss_rate = -nan, Pending_hits = 0, Reservation_fails = 0
	L1D_cache_core[14]: Access = 0, Miss = 0, Miss_rate = -nan, Pending_hits = 0, Reservation_fails = 0
	L1D_cache_core[15]: Access = 0, Miss = 0, Miss_rate = -nan, Pending_hits = 0, Reservation_fails = 0
	L1D_cache_core[16]: Access = 0, Miss = 0, Miss_rate = -nan, Pending_hits = 0, Reservation_fails = 0
	L1D_cache_core[17]: Access = 0, Miss = 0, Miss_rate = -nan, Pending_hits = 0, Reservation_fails = 0
	L1D_cache_core[18]: Access = 0, Miss = 0, Miss_rate = -nan, Pending_hits = 0, Reservation_fails = 0
	L1D_cache_core[19]: Access = 0, Miss = 0, Miss_rate = -nan, Pending_hits = 0, Reservation_fails = 0
	L1D_cache_core[20]: Access = 0, Miss = 0, Miss_rate = -nan, Pending_hits = 0, Reservation_fails = 0
	L1D_cache_core[21]: Access = 0, Miss = 0, Miss_rate = -nan, Pending_hits = 0, Reservation_fails = 0
	L1D_cache_core[22]: Access = 0, Miss = 0, Miss_rate = -nan, Pending_hits = 0, Reservation_fails = 0
	L1D_cache_core[23]: Access = 0, Miss = 0, Miss_rate = -nan, Pending_hits = 0, Reservation_fails = 0
	L1D_cache_core[24]: Access = 0, Miss = 0, Miss_rate = -nan, Pending_hits = 0, Reservation_fails = 0
	L1D_cache_core[25]: Access = 0, Miss = 0, Miss_rate = -nan, Pending_hits = 0, Reservation_fails = 0
	L1D_cache_core[26]: Access = 0, Miss = 0, Miss_rate = -nan, Pending_hits = 0, Reservation_fails = 0
	L1D_cache_core[27]: Access = 0, Miss = 0, Miss_rate = -nan, Pending_hits = 0, Reservation_fails = 0
	L1D_cache_core[28]: Access = 0, Miss = 0, Miss_rate = -nan, Pending_hits = 0, Reservation_fails = 0
	L1D_cache_core[29]: Access = 0, Miss = 0, Miss_rate = -nan, Pending_hits = 0, Reservation_fails = 0
	L1D_cache_core[30]: Access = 0, Miss = 0, Miss_rate = -nan, Pending_hits = 0, Reservation_fails = 0
	L1D_cache_core[31]: Access = 0, Miss = 0, Miss_rate = -nan, Pending_hits = 0, Reservation_fails = 0
	L1D_cache_core[32]: Access = 0, Miss = 0, Miss_rate = -nan, Pending_hits = 0, Reservation_fails = 0
	L1D_cache_core[33]: Access = 0, Miss = 0, Miss_rate = -nan, Pending_hits = 0, Reservation_fails = 0
	L1D_cache_core[34]: Access = 0, Miss = 0, Miss_rate = -nan, Pending_hits = 0, Reservation_fails = 0
	L1D_cache_core[35]: Access = 0, Miss = 0, Miss_rate = -nan, Pending_hits = 0, Reservation_fails = 0
	L1D_cache_core[36]: Access = 0, Miss = 0, Miss_rate = -nan, Pending_hits = 0, Reservation_fails = 0
	L1D_cache_core[37]: Access = 0, Miss = 0, Miss_rate = -nan, Pending_hits = 0, Reservation_fails = 0
	L1D_cache_core[38]: Access = 0, Miss = 0, Miss_rate = -nan, Pending_hits = 0, Reservation_fails = 0
	L1D_cache_core[39]: Access = 0, Miss = 0, Miss_rate = -nan, Pending_hits = 0, Reservation_fails = 0
	L1D_cache_core[40]: Access = 0, Miss = 0, Miss_rate = -nan, Pending_hits = 0, Reservation_fails = 0
	L1D_cache_core[41]: Access = 0, Miss = 0, Miss_rate = -nan, Pending_hits = 0, Reservation_fails = 0
	L1D_cache_core[42]: Access = 0, Miss = 0, Miss_rate = -nan, Pending_hits = 0, Reservation_fails = 0
	L1D_cache_core[43]: Access = 0, Miss = 0, Miss_rate = -nan, Pending_hits = 0, Reservation_fails = 0
	L1D_cache_core[44]: Access = 0, Miss = 0, Miss_rate = -nan, Pending_hits = 0, Reservation_fails = 0
	L1D_cache_core[45]: Access = 0, Miss = 0, Miss_rate = -nan, Pending_hits = 0, Reservation_fails = 0
	L1D_cache_core[46]: Access = 0, Miss = 0, Miss_rate = -nan, Pending_hits = 0, Reservation_fails = 0
	L1D_cache_core[47]: Access = 0, Miss = 0, Miss_rate = -nan, Pending_hits = 0, Reservation_fails = 0
	L1D_cache_core[48]: Access = 0, Miss = 0, Miss_rate = -nan, Pending_hits = 0, Reservation_fails = 0
	L1D_cache_core[49]: Access = 0, Miss = 0, Miss_rate = -nan, Pending_hits = 0, Reservation_fails = 0
	L1D_cache_core[50]: Access = 0, Miss = 0, Miss_rate = -nan, Pending_hits = 0, Reservation_fails = 0
	L1D_cache_core[51]: Access = 0, Miss = 0, Miss_rate = -nan, Pending_hits = 0, Reservation_fails = 0
	L1D_cache_core[52]: Access = 0, Miss = 0, Miss_rate = -nan, Pending_hits = 0, Reservation_fails = 0
	L1D_cache_core[53]: Access = 0, Miss = 0, Miss_rate = -nan, Pending_hits = 0, Reservation_fails = 0
	L1D_cache_core[54]: Access = 0, Miss = 0, Miss_rate = -nan, Pending_hits = 0, Reservation_fails = 0
	L1D_cache_core[55]: Access = 0, Miss = 0, Miss_rate = -nan, Pending_hits = 0, Reservation_fails = 0
	L1D_cache_core[56]: Access = 0, Miss = 0, Miss_rate = -nan, Pending_hits = 0, Reservation_fails = 0
	L1D_cache_core[57]: Access = 0, Miss = 0, Miss_rate = -nan, Pending_hits = 0, Reservation_fails = 0
	L1D_cache_core[58]: Access = 0, Miss = 0, Miss_rate = -nan, Pending_hits = 0, Reservation_fails = 0
	L1D_cache_core[59]: Access = 0, Miss = 0, Miss_rate = -nan, Pending_hits = 0, Reservation_fails = 0
	L1D_cache_core[60]: Access = 0, Miss = 0, Miss_rate = -nan, Pending_hits = 0, Reservation_fails = 0
	L1D_cache_core[61]: Access = 0, Miss = 0, Miss_rate = -nan, Pending_hits = 0, Reservation_fails = 0
	L1D_cache_core[62]: Access = 0, Miss = 0, Miss_rate = -nan, Pending_hits = 0, Reservation_fails = 0
	L1D_cache_core[63]: Access = 0, Miss = 0, Miss_rate = -nan, Pending_hits = 0, Reservation_fails = 0
	L1D_cache_core[64]: Access = 0, Miss = 0, Miss_rate = -nan, Pending_hits = 0, Reservation_fails = 0
	L1D_cache_core[65]: Access = 0, Miss = 0, Miss_rate = -nan, Pending_hits = 0, Reservation_fails = 0
	L1D_cache_core[66]: Access = 0, Miss = 0, Miss_rate = -nan, Pending_hits = 0, Reservation_fails = 0
	L1D_cache_core[67]: Access = 0, Miss = 0, Miss_rate = -nan, Pending_hits = 0, Reservation_fails = 0
	L1D_cache_core[68]: Access = 0, Miss = 0, Miss_rate = -nan, Pending_hits = 0, Reservation_fails = 0
	L1D_cache_core[69]: Access = 0, Miss = 0, Miss_rate = -nan, Pending_hits = 0, Reservation_fails = 0
	L1D_cache_core[70]: Access = 0, Miss = 0, Miss_rate = -nan, Pending_hits = 0, Reservation_fails = 0
	L1D_cache_core[71]: Access = 0, Miss = 0, Miss_rate = -nan, Pending_hits = 0, Reservation_fails = 0
	L1D_cache_core[72]: Access = 0, Miss = 0, Miss_rate = -nan, Pending_hits = 0, Reservation_fails = 0
	L1D_cache_core[73]: Access = 0, Miss = 0, Miss_rate = -nan, Pending_hits = 0, Reservation_fails = 0
	L1D_cache_core[74]: Access = 0, Miss = 0, Miss_rate = -nan, Pending_hits = 0, Reservation_fails = 0
	L1D_cache_core[75]: Access = 0, Miss = 0, Miss_rate = -nan, Pending_hits = 0, Reservation_fails = 0
	L1D_cache_core[76]: Access = 0, Miss = 0, Miss_rate = -nan, Pending_hits = 0, Reservation_fails = 0
	L1D_cache_core[77]: Access = 0, Miss = 0, Miss_rate = -nan, Pending_hits = 0, Reservation_fails = 0
	L1D_cache_core[78]: Access = 0, Miss = 0, Miss_rate = -nan, Pending_hits = 0, Reservation_fails = 0
	L1D_cache_core[79]: Access = 0, Miss = 0, Miss_rate = -nan, Pending_hits = 0, Reservation_fails = 0
	L1D_total_cache_accesses = 426496
	L1D_total_cache_misses = 305777
	L1D_total_cache_miss_rate = 0.7170
	L1D_total_cache_pending_hits = 0
	L1D_total_cache_reservation_fails = 0
	L1D_cache_data_port_util = 0.085
	L1D_cache_fill_port_util = 0.122
L1C_cache:
	L1C_total_cache_accesses = 0
	L1C_total_cache_misses = 0
	L1C_total_cache_pending_hits = 0
	L1C_total_cache_reservation_fails = 0
L1T_cache:
	L1T_total_cache_accesses = 0
	L1T_total_cache_misses = 0
	L1T_total_cache_pending_hits = 0
	L1T_total_cache_reservation_fails = 0

Total_core_cache_stats:
	Total_core_cache_stats_breakdown[GLOBAL_ACC_R][HIT] = 82106
	Total_core_cache_stats_breakdown[GLOBAL_ACC_R][HIT_RESERVED] = 0
	Total_core_cache_stats_breakdown[GLOBAL_ACC_R][MISS] = 157077
	Total_core_cache_stats_breakdown[GLOBAL_ACC_R][RESERVATION_FAIL] = 0
	Total_core_cache_stats_breakdown[GLOBAL_ACC_R][SECTOR_MISS] = 56241
	Total_core_cache_stats_breakdown[LOCAL_ACC_R][HIT] = 0
	Total_core_cache_stats_breakdown[LOCAL_ACC_R][HIT_RESERVED] = 0
	Total_core_cache_stats_breakdown[LOCAL_ACC_R][MISS] = 0
	Total_core_cache_stats_breakdown[LOCAL_ACC_R][RESERVATION_FAIL] = 0
	Total_core_cache_stats_breakdown[LOCAL_ACC_R][SECTOR_MISS] = 0
	Total_core_cache_stats_breakdown[CONST_ACC_R][HIT] = 0
	Total_core_cache_stats_breakdown[CONST_ACC_R][HIT_RESERVED] = 0
	Total_core_cache_stats_breakdown[CONST_ACC_R][MISS] = 0
	Total_core_cache_stats_breakdown[CONST_ACC_R][RESERVATION_FAIL] = 0
	Total_core_cache_stats_breakdown[CONST_ACC_R][SECTOR_MISS] = 0
	Total_core_cache_stats_breakdown[TEXTURE_ACC_R][HIT] = 0
	Total_core_cache_stats_breakdown[TEXTURE_ACC_R][HIT_RESERVED] = 0
	Total_core_cache_stats_breakdown[TEXTURE_ACC_R][MISS] = 0
	Total_core_cache_stats_breakdown[TEXTURE_ACC_R][RESERVATION_FAIL] = 0
	Total_core_cache_stats_breakdown[TEXTURE_ACC_R][SECTOR_MISS] = 0
	Total_core_cache_stats_breakdown[GLOBAL_ACC_W][HIT] = 38613
	Total_core_cache_stats_breakdown[GLOBAL_ACC_W][HIT_RESERVED] = 0
	Total_core_cache_stats_breakdown[GLOBAL_ACC_W][MISS] = 49582
	Total_core_cache_stats_breakdown[GLOBAL_ACC_W][RESERVATION_FAIL] = 0
	Total_core_cache_stats_breakdown[GLOBAL_ACC_W][SECTOR_MISS] = 42877
	Total_core_cache_stats_breakdown[LOCAL_ACC_W][HIT] = 0
	Total_core_cache_stats_breakdown[LOCAL_ACC_W][HIT_RESERVED] = 0
	Total_core_cache_stats_breakdown[LOCAL_ACC_W][MISS] = 0
	Total_core_cache_stats_breakdown[LOCAL_ACC_W][RESERVATION_FAIL] = 0
	Total_core_cache_stats_breakdown[LOCAL_ACC_W][SECTOR_MISS] = 0
	Total_core_cache_stats_breakdown[L1_WRBK_ACC][HIT] = 0
	Total_core_cache_stats_breakdown[L1_WRBK_ACC][HIT_RESERVED] = 0
	Total_core_cache_stats_breakdown[L1_WRBK_ACC][MISS] = 0
	Total_core_cache_stats_breakdown[L1_WRBK_ACC][RESERVATION_FAIL] = 0
	Total_core_cache_stats_breakdown[L1_WRBK_ACC][SECTOR_MISS] = 0
	Total_core_cache_stats_breakdown[L2_WRBK_ACC][HIT] = 0
	Total_core_cache_stats_breakdown[L2_WRBK_ACC][HIT_RESERVED] = 0
	Total_core_cache_stats_breakdown[L2_WRBK_ACC][MISS] = 0
	Total_core_cache_stats_breakdown[L2_WRBK_ACC][RESERVATION_FAIL] = 0
	Total_core_cache_stats_breakdown[L2_WRBK_ACC][SECTOR_MISS] = 0
	Total_core_cache_stats_breakdown[INST_ACC_R][HIT] = 0
	Total_core_cache_stats_breakdown[INST_ACC_R][HIT_RESERVED] = 0
	Total_core_cache_stats_breakdown[INST_ACC_R][MISS] = 0
	Total_core_cache_stats_breakdown[INST_ACC_R][RESERVATION_FAIL] = 0
	Total_core_cache_stats_breakdown[INST_ACC_R][SECTOR_MISS] = 0
	Total_core_cache_stats_breakdown[L1_WR_ALLOC_R][HIT] = 0
	Total_core_cache_stats_breakdown[L1_WR_ALLOC_R][HIT_RESERVED] = 0
	Total_core_cache_stats_breakdown[L1_WR_ALLOC_R][MISS] = 0
	Total_core_cache_stats_breakdown[L1_WR_ALLOC_R][RESERVATION_FAIL] = 0
	Total_core_cache_stats_breakdown[L1_WR_ALLOC_R][SECTOR_MISS] = 0
	Total_core_cache_stats_breakdown[L2_WR_ALLOC_R][HIT] = 0
	Total_core_cache_stats_breakdown[L2_WR_ALLOC_R][HIT_RESERVED] = 0
	Total_core_cache_stats_breakdown[L2_WR_ALLOC_R][MISS] = 0
	Total_core_cache_stats_breakdown[L2_WR_ALLOC_R][RESERVATION_FAIL] = 0
	Total_core_cache_stats_breakdown[L2_WR_ALLOC_R][SECTOR_MISS] = 0
	Total_core_cache_stats_breakdown[GLOBAL_ACC_R][TOTAL_ACCESS] = 295424
	Total_core_cache_stats_breakdown[GLOBAL_ACC_W][TOTAL_ACCESS] = 131072

Total_core_cache_fail_stats:
Shader 0 warp_id issue ditsribution:
warp_id:
0, 1, 2, 3, 4, 5, 6, 7, 8, 9, 10, 11, 12, 13, 14, 15, 16, 17, 18, 19, 20, 21, 22, 23, 24, 25, 26, 27, 28, 29, 30, 31, 
distro:
4953, 4953, 4953, 4953, 4953, 4953, 4953, 4953, 4953, 4953, 4953, 4953, 4953, 4953, 4953, 4953, 4953, 4953, 4953, 4953, 4953, 4953, 4953, 4953, 4953, 4953, 4953, 4953, 4953, 4953, 4953, 4953, 
gpgpu_n_tot_thrd_icount = 40574976
gpgpu_n_tot_w_icount = 1267968
gpgpu_n_stall_shd_mem = 393216
gpgpu_n_mem_read_local = 0
gpgpu_n_mem_write_local = 0
gpgpu_n_mem_read_global = 171824
gpgpu_n_mem_write_global = 262144
gpgpu_n_mem_texture = 0
gpgpu_n_mem_const = 0
gpgpu_n_load_insn  = 3162112
gpgpu_n_store_insn = 262144
gpgpu_n_shmem_insn = 0
gpgpu_n_sstarr_insn = 0
gpgpu_n_tex_insn = 0
gpgpu_n_const_mem_insn = 0
gpgpu_n_param_mem_insn = 24576
gpgpu_n_shmem_bkconflict = 0
gpgpu_n_cache_bkconflict = 0
gpgpu_n_intrawarp_mshr_merge = 0
gpgpu_n_cmem_portconflict = 0
gpgpu_stall_shd_mem[c_mem][resource_stall] = 0
gpgpu_stall_shd_mem[s_mem][bk_conf] = 0
gpgpu_stall_shd_mem[gl_mem][resource_stall] = 294912
gpgpu_stall_shd_mem[gl_mem][coal_stall] = 98304
gpgpu_stall_shd_mem[gl_mem][data_port_stall] = 0
gpu_reg_bank_conflict_stalls = 0
Warp Occupancy Distribution:
Stall:413527	W0_Idle:507183	W0_Scoreboard:3464034	W1:0	W2:0	W3:0	W4:196608	W5:0	W6:0	W7:0	W8:0	W9:0	W10:0	W11:0	W12:0	W13:0	W14:0	W15:0	W16:0	W17:0	W18:0	W19:0	W20:0	W21:0	W22:0	W23:0	W24:0	W25:0	W26:0	W27:0	W28:0	W29:0	W30:0	W31:0	W32:1071360
single_issue_nums: WS0:316992	WS1:316992	WS2:316992	WS3:316992	
dual_issue_nums: WS0:0	WS1:0	WS2:0	WS3:0	
traffic_breakdown_coretomem[GLOBAL_ACC_R] = 1374592 {8:171824,}
traffic_breakdown_coretomem[GLOBAL_ACC_W] = 6291456 {8:131072,40:131072,}
traffic_breakdown_memtocore[GLOBAL_ACC_R] = 6872960 {40:171824,}
traffic_breakdown_memtocore[GLOBAL_ACC_W] = 2097152 {8:262144,}
maxmflatency = 1101 
max_icnt2mem_latency = 134 
maxmrqlatency = 466 
max_icnt2sh_latency = 77 
averagemflatency = 269 
avg_icnt2mem_latency = 17 
avg_mrq_latency = 12 
avg_icnt2sh_latency = 4 
mrq_lat_table:74041 	37065 	2383 	3077 	7792 	10747 	6045 	2118 	208 	0 	0 	0 	0 	0 	0 	0 	0 	0 	0 	0 	0 	0 	0 	0 	0 	0 	0 	0 	0 	0 	0 	0 	
dq_lat_table:0 	0 	0 	0 	0 	0 	0 	0 	0 	0 	0 	0 	0 	0 	0 	0 	0 	0 	0 	0 	0 	0 	0 	0 	0 	0 	0 	0 	0 	0 	0 	0 	
mf_lat_table:0 	0 	0 	0 	0 	0 	0 	358834 	12290 	62838 	6 	0 	0 	0 	0 	0 	0 	0 	0 	0 	0 	0 	0 	0 	0 	0 	0 	0 	0 	0 	0 	0 	
icnt2mem_lat_table:0 	116609 	14036 	427 	302455 	196 	237 	8 	0 	0 	0 	0 	0 	0 	0 	0 	0 	0 	0 	0 	0 	0 	0 	0 	
icnt2sh_lat_table:0 	262142 	109252 	51369 	10742 	458 	5 	0 	0 	0 	0 	0 	0 	0 	0 	0 	0 	0 	0 	0 	0 	0 	0 	0 	
mf_lat_pw_table:0 	0 	0 	0 	0 	0 	0 	139 	197 	20 	0 	0 	0 	0 	0 	0 	0 	0 	0 	0 	0 	0 	0 	0 	0 	0 	0 	0 	0 	0 	0 	0 	
maximum concurrent accesses to same row:
dram[0]:         8         8         8         8        16         8         8         8         8         8        16         8         2         2         3         3 
dram[1]:         8         8         8         8         8        16         7         8         8         8         8         8         3         3         3         3 
dram[2]:         8         8         8         8         8         9         8         8         8         8         8        16         3         2         3         3 
dram[3]:         8         8         8        12         8         8         8         8         6         8         8         8         3         2         2         3 
dram[4]:         8         8         8         8         8        16         4         8         8         8         8        12         2         3         3         2 
dram[5]:         8         8         8         8        16        12         8         8         8         8         8        16         3         3         3         3 
dram[6]:         8         8         7         8         8        16         8         5         8         8         8        12         2         3         2         2 
dram[7]:         7         8         8         8        16         8         8         8         8         8        12        16         2         3         3         3 
dram[8]:         8         8         8         7         8        11         8         8         7         8        16        11         2         3         3         2 
dram[9]:         8         8         8         8        16         8         8         8         7         8        16         8         2         3         3         2 
dram[10]:         8         8         8         8        16         8         8         8         8         7         8        12         2         2         2         3 
dram[11]:         4         8         8         8         8        16         8         8         4         8        13         8         3         3         2         3 
dram[12]:         5         8         8         8         8         8         8         8        12         8         8         8         2         2         3         2 
dram[13]:         8         7         8         8        16        12         6         8         8         8         8         8         2         3         3         3 
dram[14]:         8         8         8        11        12         8         8         8         8         8         8        16         2         3         3         2 
dram[15]:         8         8         8         4         9        16         7         8         8         8         8         8         3         3         3         3 
dram[16]:         8         8         8         8         8         8         8         8         5         8         8         8         3         2         3         3 
dram[17]:         8         8         8         8         8         9         8         8         8         8        16        12         2         3         3         2 
dram[18]:         8         8         8         8        13         8         8         8         4        12         9         8         3         3         3         3 
dram[19]:         8         8         8        16        12        16         8         8         7         8         8        16         3         2         3         3 
dram[20]:         8         8        16         8        16         8         8         8         8         7         8         8         3         3         3         3 
dram[21]:         8         8         8         8         8        16         8         8         8        12        16        16         2         2         2         3 
dram[22]:         8         8         8         8         8         8         8         8         8         8         8        16         2         3         2         2 
dram[23]:         8         8         8         8         8        16         8         7         8         8         8        13         2         3         3         3 
dram[24]:         8         8         8         8         8        16         8         8         8         8         8        12         2         2         2         3 
dram[25]:         8         8         8         8        15         8         8         8         8         8         8         8         2         2         2         3 
dram[26]:         8         8         8         8        16         9         8         8         8         8         8         8         3         3         3         3 
dram[27]:         8         8         8         8        15        10         8         8         8         8         8         8         2         2         3         2 
dram[28]:         8         8         8        16        16         8         8         8         6         8         8        11         2         2         3         2 
dram[29]:         8         8         8         8        16         8         8         8         8         8         8        10         3         3         3         3 
dram[30]:         8         8         8         8         8         8         8         8         8         8        11        16         3         3         3         2 
dram[31]:         8         8         8         8         8         8         8         8         8         8         8         8         3         3         3         3 
maximum service time to same row:
dram[0]:      6370      7186      9526      6276      6374      6373      6257      6254      6273      6274      6226      8541      6390      8561      6326      8549 
dram[1]:      6405      8562      6389      7297      6241      7259      6294      6377      6353      6924      8621      6266      6425      7347      6249      6345 
dram[2]:      6314      6212      6273      7367      6365      8580      6309      6381      6985      6325      6326      8544      6369      6253      6209      7135 
dram[3]:      6215      6262      6866      6273      6334      6963      6337      7057      6330      6892      6270      6358      6434      6614      8149      6257 
dram[4]:      6242      6301      6209      9465      6425      8497      6953      6414      6244      6967      7314      6211      6250      6302      8542      8553 
dram[5]:      6254      8675      6257      7607      6306      6249      8637      6345      6362      6309      6341      8391      8561      8537      8528      6241 
dram[6]:      8463      9749      7327      6325      7013      9981      6365      8475      8467      6337      8501      6298      7029      6224      6286      6229 
dram[7]:      6289      6313      7347      7002      8525      8522      6892      6285      8526      6377      7014     10302     10972      6211      6286      8533 
dram[8]:      8592      8505      6700      8222      7002      6297      8258      7504      6261      6265      8509     10433      6269      8490      8647      6205 
dram[9]:      6269      7030      6389      6212      6346     10861      6257      7375      6345      6258      6333      6364      6342      6270      8557      8525 
dram[10]:      6269      6213      6349      6209      6443      6304      6230      6329      6302      6264      6377      7214      6237      6317      6208      6297 
dram[11]:      7620      6245     10530      6408      6341      6230     14623      6265      8522      6302      6329      6314      6856      6409      6962     10858 
dram[12]:      8963      6309      6997      8514      6230      6229      6370      6272      6250      6349      6273      6232      6208      6269      6337      6377 
dram[13]:      6374      9353      8520      6253      6257      7021      6991      7097      6325      6939      7182      6908      6208      8532      6417      6382 
dram[14]:      6233      6381      6406      6382      6354      6269      8489      6986      7039      6636      6366      6225      6229      6712      9551      8500 
dram[15]:      6310      7136      6250      6207      6397      6282      8526      7984      6249      6257      8597      7092      6229     10525      6370     11689 
dram[16]:      6293      6341      6381      6212      6234      6242      6401      6254      6345      6385      7257      6949      6253      6265      6269      6229 
dram[17]:      6366      8549      6302      6298      6357      6422      8542      6417      6398      6329      8253      6342      8556      8552      6381      6297 
dram[18]:     10878      8549      9432      9312      6242      6234      6233      8144      6302      8665      6297      6752      6269      7736      8521      6261 
dram[19]:      6345     10897      6920      6993      7515      8512      7441      6425      6281      7134      6293      9116      7110      6321      6354      6265 
dram[20]:      6241      6350      6297      6402      6277      6229      7175      6321      9194     10840      6211     10896      6336      6290      6408      6317 
dram[21]:      6273      6381      6246      8529      6309      8536      7073      8530      6253      6262      6245      6972      6405      7030      6212      6393 
dram[22]:      8542      6968      6300      6258      6362      6338      6229      6373      8569      6589      7291      8544      6333      6385      6266      8552 
dram[23]:      6633      6207      6314      6237      6282      6346      6333      7039      6241      8494      9511      6250      8159      6313      9318      6233 
dram[24]:      6342      7033      7012      6413      8516      6261      6808      6277     10860      6425      6417      6258      7399      6238      6318      6416 
dram[25]:      6309      8566      7687      6993      7517      8689      6413      6425      6310      6322      6230      6229      6286      6265      6246      8536 
dram[26]:      6333      8370      9123      6212      6293      6353      7698      6409      6342      8506      6382     10840      6363      6743      8512      8577 
dram[27]:      6212      6285      6265      6933      6341      7015      8510      6338      6301      6241     15457      6290     11702      6382      6361      8517 
dram[28]:      6382      6384      6262      6297      6305      8506      7342      6209      9757      9799      6354      6245      6381      8513      8526      6211 
dram[29]:      6285      8512      8593      6365      7047      6237      6361      6414      6362      6224      6337      6939      6261      8524      7223      7366 
dram[30]:      6250      6281      6385      6252      6954      6373      8542      6261      6285      6381      7187      6249      7153      6246      6305      6821 
dram[31]:      6370      6249      6266      6316      6552      6512      7398      6342      6229      8557      6366      6305      6628      6374      6269      7063 
average row accesses per activate:
dram[0]:  1.087719  1.152610  1.146789  1.100000  1.162455  1.205426  1.130252  1.100746  1.127049  1.186147  1.137255  1.174089  1.068441  1.055794  1.090909  1.060729 
dram[1]:  1.129187  1.114407  1.132530  1.171429  1.129707  1.167442  1.140845  1.166667  1.091912  1.142157  1.144487  1.173709  1.067616  1.114286  1.051502  1.116883 
dram[2]:  1.118421  1.121324  1.116838  1.176000  1.207627  1.243478  1.168142  1.117857  1.155894  1.102837  1.096154  1.160305  1.073930  1.044280  1.069106  1.080851 
dram[3]:  1.131148  1.156000  1.151961  1.174468  1.193694  1.175510  1.103306  1.145455  1.141414  1.127119  1.136364  1.138790  1.060377  1.083333  1.086207  1.094059 
dram[4]:  1.103175  1.124481  1.178218  1.142857  1.164179  1.245000  1.125000  1.127854  1.062963  1.132530  1.143519  1.251232  1.066986  1.062762  1.074803  1.045283 
dram[5]:  1.059041  1.114391  1.088525  1.125899  1.144000  1.156794  1.191489  1.089109  1.104869  1.129921  1.163569  1.240385  1.099567  1.048193  1.066038  1.075221 
dram[6]:  1.157407  1.148936  1.105469  1.141129  1.169811  1.221154  1.111969  1.133333  1.127551  1.174129  1.159483  1.158301  1.053333  1.063492  1.046512  1.052830 
dram[7]:  1.137931  1.119601  1.111538  1.137778  1.188596  1.185950  1.100746  1.101266  1.137441  1.124000  1.215000  1.194805  1.064220  1.084746  1.057034  1.056680 
dram[8]:  1.128319  1.135135  1.113726  1.119342  1.149606  1.162162  1.109170  1.187817  1.124424  1.119231  1.194332  1.209091  1.040984  1.044715  1.098522  1.069767 
dram[9]:  1.165877  1.136752  1.122677  1.093960  1.153846  1.197368  1.101167  1.118852  1.087453  1.097122  1.144781  1.139373  1.026923  1.049793  1.119761  1.059091 
dram[10]:  1.152000  1.095785  1.178082  1.092409  1.170732  1.213930  1.121339  1.097473  1.098485  1.138655  1.172414  1.247573  1.074510  1.052863  1.075758  1.056604 
dram[11]:  1.046763  1.104167  1.155462  1.150198  1.148148  1.171821  1.156098  1.098765  1.092664  1.150579  1.163194  1.168067  1.094340  1.068273  1.073593  1.062500 
dram[12]:  1.112500  1.106529  1.136986  1.158120  1.114983  1.151515  1.101045  1.099099  1.199187  1.162791  1.146520  1.174242  1.048443  1.049020  1.065844  1.058333 
dram[13]:  1.119658  1.107981  1.089928  1.148000  1.207317  1.165179  1.112903  1.131783  1.085185  1.139241  1.192771  1.157509  1.041198  1.085202  1.064815  1.074561 
dram[14]:  1.142322  1.121324  1.122137  1.191489  1.141264  1.185185  1.165094  1.154867  1.141631  1.119231  1.186147  1.237443  1.046763  1.073469  1.073395  1.065502 
dram[15]:  1.136187  1.221650  1.119048  1.107438  1.212000  1.164286  1.088889  1.171569  1.118644  1.149813  1.185654  1.185039  1.076613  1.077253  1.080569  1.052000 
dram[16]:  1.115079  1.115079  1.109434  1.138889  1.148305  1.153333  1.100746  1.117424  1.090909  1.109589  1.170732  1.184615  1.102564  1.025000  1.060150  1.050980 
dram[17]:  1.141732  1.119298  1.108787  1.160448  1.223577  1.193662  1.109022  1.154812  1.137500  1.119850  1.163701  1.191176  1.050505  1.096774  1.080169  1.057143 
dram[18]:  1.117347  1.130769  1.124464  1.193878  1.146825  1.135314  1.140272  1.138577  1.079295  1.139344  1.233333  1.219512  1.132275  1.046693  1.060086  1.080717 
dram[19]:  1.125541  1.146465  1.127451  1.191571  1.194175  1.212245  1.175879  1.135849  1.094421  1.105431  1.149813  1.175373  1.085837  1.026230  1.050584  1.064000 
dram[20]:  1.118518  1.106464  1.166667  1.151394  1.168776  1.147766  1.172566  1.147410  1.107438  1.164179  1.170040  1.207031  1.061151  1.087156  1.054852  1.082609 
dram[21]:  1.108787  1.156951  1.217391  1.216450  1.174089  1.162698  1.113636  1.148438  1.109375  1.158915  1.180723  1.211618  1.084906  1.043478  1.060241  1.054545 
dram[22]:  1.127273  1.128000  1.156522  1.136719  1.151007  1.145455  1.161572  1.196262  1.142336  1.124161  1.218341  1.255435  1.062500  1.091667  1.037879  1.043307 
dram[23]:  1.123016  1.124528  1.100746  1.162791  1.148410  1.197880  1.113475  1.126812  1.167401  1.172093  1.172000  1.216535  1.050388  1.076596  1.069264  1.061303 
dram[24]:  1.121739  1.124060  1.168067  1.166667  1.165992  1.181495  1.136187  1.119122  1.100402  1.183333  1.222222  1.159836  1.060000  1.031359  1.055336  1.055556 
dram[25]:  1.122605  1.163636  1.179283  1.164659  1.191235  1.175573  1.118577  1.173745  1.100977  1.162791  1.164234  1.179577  1.063063  1.042918  1.077586  1.087805 
dram[26]:  1.145923  1.133065  1.142276  1.228700  1.140152  1.153846  1.117155  1.125850  1.116667  1.177966  1.190083  1.253456  1.069767  1.040268  1.063025  1.043956 
dram[27]:  1.078176  1.148594  1.178261  1.153846  1.181818  1.236515  1.128631  1.125000  1.161290  1.126482  1.161826  1.275132  1.065217  1.056818  1.122271  1.073913 
dram[28]:  1.144578  1.178261  1.096154  1.157895  1.166090  1.173285  1.113636  1.096154  1.093878  1.117450  1.171206  1.183607  1.052448  1.060345  1.072581  1.037453 
dram[29]:  1.074074  1.189573  1.164912  1.168628  1.192469  1.138264  1.122605  1.105085  1.130252  1.150628  1.146245  1.192157  1.038911  1.085366  1.057692  1.079812 
dram[30]:  1.132075  1.180556  1.127273  1.212389  1.177966  1.142857  1.134454  1.100000  1.129771  1.177034  1.184314  1.248826  1.076046  1.056604  1.095436  1.032374 
dram[31]:  1.129555  1.120275  1.123134  1.145985  1.156934  1.200913  1.133333  1.132075  1.134545  1.167331  1.157480  1.159259  1.058333  1.084746  1.056604  1.066667 
average row locality = 143476/127346 = 1.126663
number of total memory accesses made:
dram[0]:         0         0         0         0         0         0         0         0         0         0         0         0         0         0         0         0 
dram[1]:         0         0         0         0         0         0         0         0         0         0         0         0         0         0         0         0 
dram[2]:         0         0         0         0         0         0         0         0         0         0         0         0         0         0         0         0 
dram[3]:         0         0         0         0         0         0         0         0         0         0         0         0         0         0         0         0 
dram[4]:         0         0         0         0         0         0         0         0         0         0         0         0         0         0         0         0 
dram[5]:         0         0         0         0         0         0         0         0         0         0         0         0         0         0         0         0 
dram[6]:         0         0         0         0         0         0         0         0         0         0         0         0         0         0         0         0 
dram[7]:         0         0         0         0         0         0         0         0         0         0         0         0         0         0         0         0 
dram[8]:         0         0         0         0         0         0         0         0         0         0         0         0         0         0         0         0 
dram[9]:         0         0         0         0         0         0         0         0         0         0         0         0         0         0         0         0 
dram[10]:         0         0         0         0         0         0         0         0         0         0         0         0         0         0         0         0 
dram[11]:         0         0         0         0         0         0         0         0         0         0         0         0         0         0         0         0 
dram[12]:         0         0         0         0         0         0         0         0         0         0         0         0         0         0         0         0 
dram[13]:         0         0         0         0         0         0         0         0         0         0         0         0         0         0         0         0 
dram[14]:         0         0         0         0         0         0         0         0         0         0         0         0         0         0         0         0 
dram[15]:         0         0         0         0         0         0         0         0         0         0         0         0         0         0         0         0 
dram[16]:         0         0         0         0         0         0         0         0         0         0         0         0         0         0         0         0 
dram[17]:         0         0         0         0         0         0         0         0         0         0         0         0         0         0         0         0 
dram[18]:         0         0         0         0         0         0         0         0         0         0         0         0         0         0         0         0 
dram[19]:         0         0         0         0         0         0         0         0         0         0         0         0         0         0         0         0 
dram[20]:         0         0         0         0         0         0         0         0         0         0         0         0         0         0         0         0 
dram[21]:         0         0         0         0         0         0         0         0         0         0         0         0         0         0         0         0 
dram[22]:         0         0         0         0         0         0         0         0         0         0         0         0         0         0         0         0 
dram[23]:         0         0         0         0         0         0         0         0         0         0         0         0         0         0         0         0 
dram[24]:         0         0         0         0         0         0         0         0         0         0         0         0         0         0         0         0 
dram[25]:         0         0         0         0         0         0         0         0         0         0         0         0         0         0         0         0 
dram[26]:         0         0         0         0         0         0         0         0         0         0         0         0         0         0         0         0 
dram[27]:         0         0         0         0         0         0         0         0         0         0         0         0         0         0         0         0 
dram[28]:         0         0         0         0         0         0         0         0         0         0         0         0         0         0         0         0 
dram[29]:         0         0         0         0         0         0         0         0         0         0         0         0         0         0         0         0 
dram[30]:         0         0         0         0         0         0         0         0         0         0         0         0         0         0         0         0 
dram[31]:         0         0         0         0         0         0         0         0         0         0         0         0         0         0         0         0 
total accesses: 0
min_bank_accesses = 0!
min_chip_accesses = 0!
number of total read accesses:
dram[0]:       158       153       140       177       171       174       145       153       141       146       159       151       137       118       119       124 
dram[1]:       127       144       146       159       146       136       125       135       148       135       160       140       149       121       125       126 
dram[2]:       133       151       173       154       156       164       146       162       164       160       150       169       134       138       127       127 
dram[3]:       142       147       134       149       146       161       143       133       117       144       162       169       138        99       123       114 
dram[4]:       138       136       122       123       133       146       119       126       151       148       131       140       115       131       132       135 
dram[5]:       147       157       172       161       148       175       150       168       148       154       166       142       127       131       115       116 
dram[6]:       135       147       151       147       166       138       145       123       114       128       142       160       113       131       137       139 
dram[7]:       133       176       148       133       154       159       145       135       129       148       139       156       117       129       142       124 
dram[8]:       133       161       152       139       157       166       140       118       137       153       162       152       122       129       106       114 
dram[9]:       126       141       154       170       170       158       148       145       149       151       183       178       127       123        92       114 
dram[10]:       143       148       128       172       154       138       139       156       159       143       151       141       140       118       134       135 
dram[11]:       148       169       149       154       133       188       129       178       142       152       178       153       112       128       123       113 
dram[12]:       144       163       135       148       169       168       157       181       165       155       166       170       145       151       124       124 
dram[13]:       138       126       162       153       163       140       140       154       152       140       164       166       132       120       121       122 
dram[14]:       155       161       152       154       163       161       136       141       147       156       153       157       142       131       117       119 
[...]
Ready @ 183375 -   mf: uid=1596018, sid4294967295:w4294967295, part=29, addr=0xd438dd80, store, size=64, L2_WRBK  status = IN_PARTITION_DRAM_LATENCY_QUEUE (182775), 
Ready @ 183488 -   mf: uid=1596171, sid4294967295:w4294967295, part=29, addr=0xd792fd00, store, size=64, L2_WRBK  status = IN_PARTITION_DRAM_LATENCY_QUEUE (182888), 
Ready @ 183504 -   mf: uid=1596184, sid4294967295:w4294967295, part=29, addr=0xd0d55d80, store, size=64, L2_WRBK  status = IN_PARTITION_DRAM_LATENCY_QUEUE (182904), 
DRAM[29]: 16 bks, busW=16 BL=2 CL=12, tRRD=3 tCCD=1, tRCD=12 tRAS=28 tRP=12 tRC=40
n_cmd=137414 n_nop=124012 n_act=4115 n_pre=4099 n_ref_event=0 n_req=4635 n_rd=2422 n_rd_L2_A=0 n_write=0 n_wr_bk=3754 bw_util=0.04494
n_activity=65695 dram_eff=0.09401
bk0: 163a 128422i bk1: 138a 130982i bk2: 175a 128797i bk3: 160a 129857i bk4: 160a 130170i bk5: 197a 128134i bk6: 148a 129570i bk7: 168a 128506i bk8: 139a 130111i bk9: 146a 129946i bk10: 154a 129303i bk11: 170a 129689i bk12: 128a 129547i bk13: 126a 129920i bk14: 136a 129664i bk15: 114a 131231i 

------------------------------------------------------------------------

Row_Buffer_Locality = 0.112190
Row_Buffer_Locality_read = 0.113543
Row_Buffer_Locality_write = 0.110709
Bank_Level_Parallism = 2.636447
Bank_Level_Parallism_Col = 1.734303
Bank_Level_Parallism_Ready = 1.051328
write_to_read_ratio_blp_rw_average = 0.557130
GrpLevelPara = 1.518798 

BW Util details:
bwutil = 0.044944 
total_CMD = 137414 
util_bw = 6176 
Wasted_Col = 26504 
Wasted_Row = 16405 
Idle = 88329 

BW Util Bottlenecks: 
RCDc_limit = 21209 
RCDWRc_limit = 16158 
WTRc_limit = 6472 
RTWc_limit = 6518 
CCDLc_limit = 3045 
rwq = 0 
CCDLc_limit_alone = 2462 
WTRc_limit_alone = 6086 
RTWc_limit_alone = 6321 

Commands details: 
total_CMD = 137414 
n_nop = 124012 
Read = 2422 
Write = 0 
L2_Alloc = 0 
L2_WB = 3754 
n_act = 4115 
n_pre = 4099 
n_ref = 0 
n_req = 4635 
total_req = 6176 

Dual Bus Interface Util: 
issued_total_row = 8214 
issued_total_col = 6176 
Row_Bus_Util =  0.059776 
CoL_Bus_Util = 0.044944 
Either_Row_CoL_Bus_Util = 0.097530 
Issued_on_Two_Bus_Simul_Util = 0.007190 
issued_two_Eff = 0.073720 
queue_avg = 0.296185 


dram_util_bins: 0 0 0 0 0 0 0 0 0 0
dram_eff_bins: 0 0 0 0 0 0 0 0 0 0
mrqq: max=21 avg=0.296185
Memory Partition 30: 
Cache L2_bank_060:
MSHR contents

Cache L2_bank_061:
MSHR contents

In Dram Latency Queue (total = 8): 
Ready @ 183153 -   mf: uid=1595310, sid4294967295:w4294967295, part=30, addr=0xe7703e00, store, size=64, L2_WRBK  status = IN_PARTITION_DRAM_LATENCY_QUEUE (182553), 
Ready @ 183164 -   mf: uid=1595353, sid4294967295:w4294967295, part=30, addr=0xe4b67e80, store, size=64, L2_WRBK  status = IN_PARTITION_DRAM_LATENCY_QUEUE (182564), 
Ready @ 183363 -   mf: uid=1595982, sid4294967295:w4294967295, part=30, addr=0xe0dc7e80, store, size=64, L2_WRBK  status = IN_PARTITION_DRAM_LATENCY_QUEUE (182763), 
Ready @ 183375 -   mf: uid=1596025, sid4294967295:w4294967295, part=30, addr=0xd141de00, store, size=64, L2_WRBK  status = IN_PARTITION_DRAM_LATENCY_QUEUE (182775), 
Ready @ 183379 -   mf: uid=1596034, sid4294967295:w4294967295, part=30, addr=0xe4851e80, store, size=64, L2_WRBK  status = IN_PARTITION_DRAM_LATENCY_QUEUE (182779), 
Ready @ 183412 -   mf: uid=1596100, sid4294967295:w4294967295, part=30, addr=0xd4021e00, store, size=64, L2_WRBK  status = IN_PARTITION_DRAM_LATENCY_QUEUE (182812), 
Ready @ 183446 -   mf: uid=1596138, sid4294967295:w4294967295, part=30, addr=0xd004de80, store, size=64, L2_WRBK  status = IN_PARTITION_DRAM_LATENCY_QUEUE (182846), 
Ready @ 183488 -   mf: uid=1596172, sid4294967295:w4294967295, part=30, addr=0xd7047e00, store, size=64, L2_WRBK  status = IN_PARTITION_DRAM_LATENCY_QUEUE (182888), 
DRAM[30]: 16 bks, busW=16 BL=2 CL=12, tRRD=3 tCCD=1, tRCD=12 tRAS=28 tRP=12 tRC=40
n_cmd=137414 n_nop=124271 n_act=4050 n_pre=4034 n_ref_event=0 n_req=4593 n_rd=2390 n_rd_L2_A=0 n_write=0 n_wr_bk=3713 bw_util=0.04441
n_activity=64854 dram_eff=0.0941
bk0: 151a 129502i bk1: 137a 130764i bk2: 168a 129181i bk3: 147a 130723i bk4: 151a 130420i bk5: 186a 127793i bk6: 145a 130162i bk7: 171a 128182i bk8: 157a 129485i bk9: 133a 131243i bk10: 159a 129533i bk11: 151a 131194i bk12: 131a 129177i bk13: 134a 129331i bk14: 132a 130240i bk15: 137a 129128i 

------------------------------------------------------------------------

Row_Buffer_Locality = 0.118223
Row_Buffer_Locality_read = 0.110460
Row_Buffer_Locality_write = 0.126645
Bank_Level_Parallism = 2.623729
Bank_Level_Parallism_Col = 1.711283
Bank_Level_Parallism_Ready = 1.043094
write_to_read_ratio_blp_rw_average = 0.557851
GrpLevelPara = 1.502896 

BW Util details:
bwutil = 0.044413 
total_CMD = 137414 
util_bw = 6103 
Wasted_Col = 26076 
Wasted_Row = 16286 
Idle = 88949 

BW Util Bottlenecks: 
RCDc_limit = 21050 
RCDWRc_limit = 15731 
WTRc_limit = 5876 
RTWc_limit = 5966 
CCDLc_limit = 3041 
rwq = 0 
CCDLc_limit_alone = 2541 
WTRc_limit_alone = 5545 
RTWc_limit_alone = 5797 

Commands details: 
total_CMD = 137414 
n_nop = 124271 
Read = 2390 
Write = 0 
L2_Alloc = 0 
L2_WB = 3713 
n_act = 4050 
n_pre = 4034 
n_ref = 0 
n_req = 4593 
total_req = 6103 

Dual Bus Interface Util: 
issued_total_row = 8084 
issued_total_col = 6103 
Row_Bus_Util =  0.058830 
CoL_Bus_Util = 0.044413 
Either_Row_CoL_Bus_Util = 0.095645 
Issued_on_Two_Bus_Simul_Util = 0.007597 
issued_two_Eff = 0.079434 
queue_avg = 0.308040 


dram_util_bins: 0 0 0 0 0 0 0 0 0 0
dram_eff_bins: 0 0 0 0 0 0 0 0 0 0
mrqq: max=20 avg=0.30804
Memory Partition 31: 
Cache L2_bank_062:
MSHR contents

Cache L2_bank_063:
MSHR contents

In Dram Latency Queue (total = 3): 
Ready @ 183173 -   mf: uid=1595392, sid4294967295:w4294967295, part=31, addr=0xe3ac7f00, store, size=64, L2_WRBK  status = IN_PARTITION_DRAM_LATENCY_QUEUE (182573), 
Ready @ 183280 -   mf: uid=1595740, sid4294967295:w4294967295, part=31, addr=0xe2bf1f80, store, size=32, L2_WRBK  status = IN_PARTITION_DRAM_LATENCY_QUEUE (182680), 
Ready @ 183327 -   mf: uid=1595861, sid4294967295:w4294967295, part=31, addr=0xd69dbf00, store, size=64, L2_WRBK  status = IN_PARTITION_DRAM_LATENCY_QUEUE (182727), 
DRAM[31]: 16 bks, busW=16 BL=2 CL=12, tRRD=3 tCCD=1, tRCD=12 tRAS=28 tRP=12 tRC=40
n_cmd=137414 n_nop=123965 n_act=4139 n_pre=4123 n_ref_event=0 n_req=4664 n_rd=2438 n_rd_L2_A=0 n_write=0 n_wr_bk=3773 bw_util=0.0452
n_activity=66089 dram_eff=0.09398
bk0: 151a 130197i bk1: 175a 128642i bk2: 161a 129427i bk3: 166a 129160i bk4: 170a 128609i bk5: 144a 130456i bk6: 159a 129099i bk7: 159a 129441i bk8: 161a 129156i bk9: 153a 129877i bk10: 163a 129681i bk11: 177a 128991i bk12: 119a 130368i bk13: 126a 130335i bk14: 131a 129552i bk15: 123a 130531i 

------------------------------------------------------------------------

Row_Buffer_Locality = 0.112564
Row_Buffer_Locality_read = 0.125103
Row_Buffer_Locality_write = 0.098832
Bank_Level_Parallism = 2.632170
Bank_Level_Parallism_Col = 1.718035
Bank_Level_Parallism_Ready = 1.050877
write_to_read_ratio_blp_rw_average = 0.554313
GrpLevelPara = 1.510873 

BW Util details:
bwutil = 0.045199 
total_CMD = 137414 
util_bw = 6211 
Wasted_Col = 26644 
Wasted_Row = 16445 
Idle = 88114 

BW Util Bottlenecks: 
RCDc_limit = 21201 
RCDWRc_limit = 16266 
WTRc_limit = 6186 
RTWc_limit = 6268 
CCDLc_limit = 3075 
rwq = 0 
CCDLc_limit_alone = 2507 
WTRc_limit_alone = 5841 
RTWc_limit_alone = 6045 

Commands details: 
total_CMD = 137414 
n_nop = 123965 
Read = 2438 
Write = 0 
L2_Alloc = 0 
L2_WB = 3773 
n_act = 4139 
n_pre = 4123 
n_ref = 0 
n_req = 4664 
total_req = 6211 

Dual Bus Interface Util: 
issued_total_row = 8262 
issued_total_col = 6211 
Row_Bus_Util =  0.060125 
CoL_Bus_Util = 0.045199 
Either_Row_CoL_Bus_Util = 0.097872 
Issued_on_Two_Bus_Simul_Util = 0.007452 
issued_two_Eff = 0.076139 
queue_avg = 0.307050 


dram_util_bins: 0 0 0 0 0 0 0 0 0 0
dram_eff_bins: 0 0 0 0 0 0 0 0 0 0
mrqq: max=19 avg=0.30705

========= L2 cache stats =========
L2_cache_bank[0]: Access = 6806, Miss = 3223, Miss_rate = 0.474, Pending_hits = 0, Reservation_fails = 0
L2_cache_bank[1]: Access = 6903, Miss = 3285, Miss_rate = 0.476, Pending_hits = 0, Reservation_fails = 0
L2_cache_bank[2]: Access = 6752, Miss = 3163, Miss_rate = 0.468, Pending_hits = 0, Reservation_fails = 0
L2_cache_bank[3]: Access = 6356, Miss = 3009, Miss_rate = 0.473, Pending_hits = 0, Reservation_fails = 0
L2_cache_bank[4]: Access = 6848, Miss = 3258, Miss_rate = 0.476, Pending_hits = 0, Reservation_fails = 0
L2_cache_bank[5]: Access = 6979, Miss = 3339, Miss_rate = 0.478, Pending_hits = 0, Reservation_fails = 0
L2_cache_bank[6]: Access = 6560, Miss = 3077, Miss_rate = 0.469, Pending_hits = 0, Reservation_fails = 0
L2_cache_bank[7]: Access = 6492, Miss = 3068, Miss_rate = 0.473, Pending_hits = 0, Reservation_fails = 0
L2_cache_bank[8]: Access = 6326, Miss = 2947, Miss_rate = 0.466, Pending_hits = 0, Reservation_fails = 0
L2_cache_bank[9]: Access = 6330, Miss = 2993, Miss_rate = 0.473, Pending_hits = 0, Reservation_fails = 0
L2_cache_bank[10]: Access = 6934, Miss = 3265, Miss_rate = 0.471, Pending_hits = 0, Reservation_fails = 0
L2_cache_bank[11]: Access = 6938, Miss = 3302, Miss_rate = 0.476, Pending_hits = 0, Reservation_fails = 0
L2_cache_bank[12]: Access = 6609, Miss = 3088, Miss_rate = 0.467, Pending_hits = 0, Reservation_fails = 0
L2_cache_bank[13]: Access = 6510, Miss = 3076, Miss_rate = 0.473, Pending_hits = 0, Reservation_fails = 0
L2_cache_bank[14]: Access = 6585, Miss = 3093, Miss_rate = 0.470, Pending_hits = 0, Reservation_fails = 0
L2_cache_bank[15]: Access = 6761, Miss = 3195, Miss_rate = 0.473, Pending_hits = 0, Reservation_fails = 0
L2_cache_bank[16]: Access = 6610, Miss = 3097, Miss_rate = 0.469, Pending_hits = 0, Reservation_fails = 0
L2_cache_bank[17]: Access = 6518, Miss = 3092, Miss_rate = 0.474, Pending_hits = 0, Reservation_fails = 0
L2_cache_bank[18]: Access = 6764, Miss = 3195, Miss_rate = 0.472, Pending_hits = 0, Reservation_fails = 0
L2_cache_bank[19]: Access = 6827, Miss = 3239, Miss_rate = 0.474, Pending_hits = 0, Reservation_fails = 0
L2_cache_bank[20]: Access = 6774, Miss = 3192, Miss_rate = 0.471, Pending_hits = 0, Reservation_fails = 0
L2_cache_bank[21]: Access = 6756, Miss = 3181, Miss_rate = 0.471, Pending_hits = 0, Reservation_fails = 0
L2_cache_bank[22]: Access = 6635, Miss = 3111, Miss_rate = 0.469, Pending_hits = 0, Reservation_fails = 0
L2_cache_bank[23]: Access = 7092, Miss = 3379, Miss_rate = 0.476, Pending_hits = 0, Reservation_fails = 0
L2_cache_bank[24]: Access = 7075, Miss = 3344, Miss_rate = 0.473, Pending_hits = 0, Reservation_fails = 0
L2_cache_bank[25]: Access = 7231, Miss = 3445, Miss_rate = 0.476, Pending_hits = 0, Reservation_fails = 0
L2_cache_bank[26]: Access = 6876, Miss = 3245, Miss_rate = 0.472, Pending_hits = 0, Reservation_fails = 0
L2_cache_bank[27]: Access = 6507, Miss = 3083, Miss_rate = 0.474, Pending_hits = 0, Reservation_fails = 0
L2_cache_bank[28]: Access = 6755, Miss = 3207, Miss_rate = 0.475, Pending_hits = 0, Reservation_fails = 0
L2_cache_bank[29]: Access = 6596, Miss = 3172, Miss_rate = 0.481, Pending_hits = 0, Reservation_fails = 0
L2_cache_bank[30]: Access = 6862, Miss = 3241, Miss_rate = 0.472, Pending_hits = 0, Reservation_fails = 0
L2_cache_bank[31]: Access = 6641, Miss = 3156, Miss_rate = 0.475, Pending_hits = 0, Reservation_fails = 0
L2_cache_bank[32]: Access = 6833, Miss = 3221, Miss_rate = 0.471, Pending_hits = 0, Reservation_fails = 0
L2_cache_bank[33]: Access = 7213, Miss = 3441, Miss_rate = 0.477, Pending_hits = 0, Reservation_fails = 0
L2_cache_bank[34]: Access = 6683, Miss = 3167, Miss_rate = 0.474, Pending_hits = 0, Reservation_fails = 0
L2_cache_bank[35]: Access = 7068, Miss = 3384, Miss_rate = 0.479, Pending_hits = 0, Reservation_fails = 0
L2_cache_bank[36]: Access = 6347, Miss = 2965, Miss_rate = 0.467, Pending_hits = 0, Reservation_fails = 0
L2_cache_bank[37]: Access = 6606, Miss = 3175, Miss_rate = 0.481, Pending_hits = 0, Reservation_fails = 0
L2_cache_bank[38]: Access = 6412, Miss = 3017, Miss_rate = 0.471, Pending_hits = 0, Reservation_fails = 0
L2_cache_bank[39]: Access = 7067, Miss = 3379, Miss_rate = 0.478, Pending_hits = 0, Reservation_fails = 0
L2_cache_bank[40]: Access = 6685, Miss = 3174, Miss_rate = 0.475, Pending_hits = 0, Reservation_fails = 0
L2_cache_bank[41]: Access = 6743, Miss = 3216, Miss_rate = 0.477, Pending_hits = 0, Reservation_fails = 0
L2_cache_bank[42]: Access = 6701, Miss = 3169, Miss_rate = 0.473, Pending_hits = 0, Reservation_fails = 0
L2_cache_bank[43]: Access = 6653, Miss = 3190, Miss_rate = 0.479, Pending_hits = 0, Reservation_fails = 0
L2_cache_bank[44]: Access = 6751, Miss = 3214, Miss_rate = 0.476, Pending_hits = 0, Reservation_fails = 0
L2_cache_bank[45]: Access = 6714, Miss = 3185, Miss_rate = 0.474, Pending_hits = 0, Reservation_fails = 0
L2_cache_bank[46]: Access = 6929, Miss = 3285, Miss_rate = 0.474, Pending_hits = 0, Reservation_fails = 0
L2_cache_bank[47]: Access = 6940, Miss = 3324, Miss_rate = 0.479, Pending_hits = 0, Reservation_fails = 0
L2_cache_bank[48]: Access = 6635, Miss = 3157, Miss_rate = 0.476, Pending_hits = 0, Reservation_fails = 0
L2_cache_bank[49]: Access = 7140, Miss = 3433, Miss_rate = 0.481, Pending_hits = 0, Reservation_fails = 0
L2_cache_bank[50]: Access = 6927, Miss = 3306, Miss_rate = 0.477, Pending_hits = 0, Reservation_fails = 0
L2_cache_bank[51]: Access = 6706, Miss = 3187, Miss_rate = 0.475, Pending_hits = 0, Reservation_fails = 0
L2_cache_bank[52]: Access = 6608, Miss = 3135, Miss_rate = 0.474, Pending_hits = 0, Reservation_fails = 0
L2_cache_bank[53]: Access = 6959, Miss = 3346, Miss_rate = 0.481, Pending_hits = 0, Reservation_fails = 0
L2_cache_bank[54]: Access = 6940, Miss = 3288, Miss_rate = 0.474, Pending_hits = 0, Reservation_fails = 0
L2_cache_bank[55]: Access = 6527, Miss = 3117, Miss_rate = 0.478, Pending_hits = 0, Reservation_fails = 0
L2_cache_bank[56]: Access = 7177, Miss = 3399, Miss_rate = 0.474, Pending_hits = 0, Reservation_fails = 0
L2_cache_bank[57]: Access = 7339, Miss = 3543, Miss_rate = 0.483, Pending_hits = 0, Reservation_fails = 0
L2_cache_bank[58]: Access = 6995, Miss = 3315, Miss_rate = 0.474, Pending_hits = 0, Reservation_fails = 0
L2_cache_bank[59]: Access = 6846, Miss = 3289, Miss_rate = 0.480, Pending_hits = 0, Reservation_fails = 0
L2_cache_bank[60]: Access = 6919, Miss = 3283, Miss_rate = 0.474, Pending_hits = 0, Reservation_fails = 0
L2_cache_bank[61]: Access = 6879, Miss = 3269, Miss_rate = 0.475, Pending_hits = 0, Reservation_fails = 0
L2_cache_bank[62]: Access = 6935, Miss = 3309, Miss_rate = 0.477, Pending_hits = 0, Reservation_fails = 0
L2_cache_bank[63]: Access = 6883, Miss = 3298, Miss_rate = 0.479, Pending_hits = 0, Reservation_fails = 0
L2_total_cache_accesses = 433968
L2_total_cache_misses = 205940
L2_total_cache_miss_rate = 0.4746
L2_total_cache_pending_hits = 0
L2_total_cache_reservation_fails = 0
L2_total_cache_breakdown:
	L2_cache_stats_breakdown[GLOBAL_ACC_R][HIT] = 96850
	L2_cache_stats_breakdown[GLOBAL_ACC_R][HIT_RESERVED] = 0
	L2_cache_stats_breakdown[GLOBAL_ACC_R][MISS] = 67686
	L2_cache_stats_breakdown[GLOBAL_ACC_R][RESERVATION_FAIL] = 0
	L2_cache_stats_breakdown[GLOBAL_ACC_R][SECTOR_MISS] = 7288
	L2_cache_stats_breakdown[LOCAL_ACC_R][HIT] = 0
	L2_cache_stats_breakdown[LOCAL_ACC_R][HIT_RESERVED] = 0
	L2_cache_stats_breakdown[LOCAL_ACC_R][MISS] = 0
	L2_cache_stats_breakdown[LOCAL_ACC_R][RESERVATION_FAIL] = 0
	L2_cache_stats_breakdown[LOCAL_ACC_R][SECTOR_MISS] = 0
	L2_cache_stats_breakdown[CONST_ACC_R][HIT] = 0
	L2_cache_stats_breakdown[CONST_ACC_R][HIT_RESERVED] = 0
	L2_cache_stats_breakdown[CONST_ACC_R][MISS] = 0
	L2_cache_stats_breakdown[CONST_ACC_R][RESERVATION_FAIL] = 0
	L2_cache_stats_breakdown[CONST_ACC_R][SECTOR_MISS] = 0
	L2_cache_stats_breakdown[TEXTURE_ACC_R][HIT] = 0
	L2_cache_stats_breakdown[TEXTURE_ACC_R][HIT_RESERVED] = 0
	L2_cache_stats_breakdown[TEXTURE_ACC_R][MISS] = 0
	L2_cache_stats_breakdown[TEXTURE_ACC_R][RESERVATION_FAIL] = 0
	L2_cache_stats_breakdown[TEXTURE_ACC_R][SECTOR_MISS] = 0
	L2_cache_stats_breakdown[GLOBAL_ACC_W][HIT] = 131178
	L2_cache_stats_breakdown[GLOBAL_ACC_W][HIT_RESERVED] = 0
	L2_cache_stats_breakdown[GLOBAL_ACC_W][MISS] = 0
	L2_cache_stats_breakdown[GLOBAL_ACC_W][RESERVATION_FAIL] = 0
	L2_cache_stats_breakdown[GLOBAL_ACC_W][SECTOR_MISS] = 130966
	L2_cache_stats_breakdown[LOCAL_ACC_W][HIT] = 0
	L2_cache_stats_breakdown[LOCAL_ACC_W][HIT_RESERVED] = 0
	L2_cache_stats_breakdown[LOCAL_ACC_W][MISS] = 0
	L2_cache_stats_breakdown[LOCAL_ACC_W][RESERVATION_FAIL] = 0
	L2_cache_stats_breakdown[LOCAL_ACC_W][SECTOR_MISS] = 0
	L2_cache_stats_breakdown[L1_WRBK_ACC][HIT] = 0
	L2_cache_stats_breakdown[L1_WRBK_ACC][HIT_RESERVED] = 0
	L2_cache_stats_breakdown[L1_WRBK_ACC][MISS] = 0
	L2_cache_stats_breakdown[L1_WRBK_ACC][RESERVATION_FAIL] = 0
	L2_cache_stats_breakdown[L1_WRBK_ACC][SECTOR_MISS] = 0
	L2_cache_stats_breakdown[L2_WRBK_ACC][HIT] = 0
	L2_cache_stats_breakdown[L2_WRBK_ACC][HIT_RESERVED] = 0
	L2_cache_stats_breakdown[L2_WRBK_ACC][MISS] = 0
	L2_cache_stats_breakdown[L2_WRBK_ACC][RESERVATION_FAIL] = 0
	L2_cache_stats_breakdown[L2_WRBK_ACC][SECTOR_MISS] = 0
	L2_cache_stats_breakdown[INST_ACC_R][HIT] = 0
	L2_cache_stats_breakdown[INST_ACC_R][HIT_RESERVED] = 0
	L2_cache_stats_breakdown[INST_ACC_R][MISS] = 0
	L2_cache_stats_breakdown[INST_ACC_R][RESERVATION_FAIL] = 0
	L2_cache_stats_breakdown[INST_ACC_R][SECTOR_MISS] = 0
	L2_cache_stats_breakdown[L1_WR_ALLOC_R][HIT] = 0
	L2_cache_stats_breakdown[L1_WR_ALLOC_R][HIT_RESERVED] = 0
	L2_cache_stats_breakdown[L1_WR_ALLOC_R][MISS] = 0
	L2_cache_stats_breakdown[L1_WR_ALLOC_R][RESERVATION_FAIL] = 0
	L2_cache_stats_breakdown[L1_WR_ALLOC_R][SECTOR_MISS] = 0
	L2_cache_stats_breakdown[L2_WR_ALLOC_R][HIT] = 0
	L2_cache_stats_breakdown[L2_WR_ALLOC_R][HIT_RESERVED] = 0
	L2_cache_stats_breakdown[L2_WR_ALLOC_R][MISS] = 0
	L2_cache_stats_breakdown[L2_WR_ALLOC_R][RESERVATION_FAIL] = 0
	L2_cache_stats_breakdown[L2_WR_ALLOC_R][SECTOR_MISS] = 0
	L2_cache_stats_breakdown[GLOBAL_ACC_R][TOTAL_ACCESS] = 171824
	L2_cache_stats_breakdown[GLOBAL_ACC_W][TOTAL_ACCESS] = 262144
L2_total_cache_reservation_fail_breakdown:
L2_cache_data_port_util = 0.027
L2_cache_fill_port_util = 0.006

icnt_total_pkts_mem_to_simt=433968
icnt_total_pkts_simt_to_mem=433968
LD_mem_lat_dist  0 0 0 0 0 0 0 0 0 0 0 0 0 0 0 0 0 0 0 0 0 0 0 0 0 0 0
ST_mem_lat_dist  0 0 0 0 0 0 0 0 0 0 0 0 0 0 0 0 0 0 0 0 0 0 0 0 0 0 0
----------------------------Interconnect-DETAILS--------------------------------
Req_Network_injected_packets_num = 433968
Req_Network_cycles = 183004
Req_Network_injected_packets_per_cycle =       2.3714 
Req_Network_conflicts_per_cycle =       0.0734
Req_Network_conflicts_per_cycle_util =       0.0915
Req_Bank_Level_Parallism =       2.9554
Req_Network_in_buffer_full_per_cycle =       0.0000
Req_Network_in_buffer_avg_util =       0.0103
Req_Network_out_buffer_full_per_cycle =       0.0000
Req_Network_out_buffer_avg_util =       0.0371

Reply_Network_injected_packets_num = 433968
Reply_Network_cycles = 183004
Reply_Network_injected_packets_per_cycle =        2.3714
Reply_Network_conflicts_per_cycle =        3.8575
Reply_Network_conflicts_per_cycle_util =       4.6632
Reply_Bank_Level_Parallism =       2.8667
Reply_Network_in_buffer_full_per_cycle =       0.0000
Reply_Network_in_buffer_avg_util =       0.0887
Reply_Network_out_buffer_full_per_cycle =       0.0000
Reply_Network_out_buffer_avg_util =       0.0296
----------------------------END-of-Interconnect-DETAILS-------------------------


gpgpu_simulation_time = 0 days, 0 hrs, 4 min, 9 sec (249 sec)
gpgpu_simulation_rate = 131828 (inst/sec)
gpgpu_simulation_rate = 734 (cycle/sec)
gpgpu_silicon_slowdown = 1542234x
GPGPU-Sim: detected inactive GPU simulation thread

total_us: 1 laps, 225346585 us


gen_hists: 1 laps, 225346585.000000 us/lap, 28168323.125000 us/cta

GPGPU-Sim: synchronize waiting for inactive GPU simulation
GPGPU-Sim API: Stream Manager State
GPGPU-Sim: detected inactive GPU simulation thread
GPGPU-Sim: *** exit detected ***
