

        *** GPGPU-Sim Simulator Version 4.0.0  [build gpgpu-sim_git-commit-_modified_0.0] ***


GPGPU-Sim PTX: simulation mode 0 (can change with PTX_SIM_MODE_FUNC environment variable:
               1=functional simulation only, 0=detailed performance simulator)
GPGPU-Sim PTX: overriding embedded ptx with ptx file (PTX_SIM_USE_PTX_FILE is set)
GPGPU-Sim: Configuration options:

-save_embedded_ptx                      0 # saves ptx files embedded in binary as <n>.ptx
-keep                                   0 # keep intermediate files created by GPGPU-Sim when interfacing with external programs
-gpgpu_ptx_save_converted_ptxplus                    0 # Saved converted ptxplus to a file
-gpgpu_occupancy_sm_number                   70 # The SM number to pass to ptxas when getting register usage for computing GPU occupancy. This parameter is required in the config.
-ptx_opcode_latency_int      4,13,4,5,145,21 # Opcode latencies for integers <ADD,MAX,MUL,MAD,DIV,SHFL>Default 1,1,19,25,145,32
-ptx_opcode_latency_fp          4,13,4,5,39 # Opcode latencies for single precision floating points <ADD,MAX,MUL,MAD,DIV>Default 1,1,1,1,30
-ptx_opcode_latency_dp         8,19,8,8,330 # Opcode latencies for double precision floating points <ADD,MAX,MUL,MAD,DIV>Default 8,8,8,8,335
-ptx_opcode_latency_sfu                  100 # Opcode latencies for SFU instructionsDefault 8
-ptx_opcode_latency_tesnor                   64 # Opcode latencies for Tensor instructionsDefault 64
-ptx_opcode_initiation_int          2,2,2,2,8,4 # Opcode initiation intervals for integers <ADD,MAX,MUL,MAD,DIV,SHFL>Default 1,1,4,4,32,4
-ptx_opcode_initiation_fp            2,2,2,2,4 # Opcode initiation intervals for single precision floating points <ADD,MAX,MUL,MAD,DIV>Default 1,1,1,1,5
-ptx_opcode_initiation_dp          4,4,4,4,130 # Opcode initiation intervals for double precision floating points <ADD,MAX,MUL,MAD,DIV>Default 8,8,8,8,130
-ptx_opcode_initiation_sfu                    8 # Opcode initiation intervals for sfu instructionsDefault 8
-ptx_opcode_initiation_tensor                   64 # Opcode initiation intervals for tensor instructionsDefault 64
-cdp_latency         7200,8000,100,12000,1600 # CDP API latency <cudaStreamCreateWithFlags, cudaGetParameterBufferV2_init_perWarp, cudaGetParameterBufferV2_perKernel, cudaLaunchDeviceV2_init_perWarp, cudaLaunchDevicV2_perKernel>Default 7200,8000,100,12000,1600
-network_mode                           2 # Interconnection network mode
-inter_config_file                   mesh # Interconnection network config file
-icnt_in_buffer_limit                  512 # in_buffer_limit
-icnt_out_buffer_limit                  512 # out_buffer_limit
-icnt_subnets                           2 # subnets
-icnt_arbiter_algo                      1 # arbiter_algo
-icnt_verbose                           0 # inct_verbose
-icnt_grant_cycles                      1 # grant_cycles
-gpgpu_ptx_use_cuobjdump                    1 # Use cuobjdump to extract ptx and sass from binaries
-gpgpu_experimental_lib_support                    0 # Try to extract code from cuda libraries [Broken because of unknown cudaGetExportTable]
-checkpoint_option                      0 #  checkpointing flag (0 = no checkpoint)
-checkpoint_kernel                      1 #  checkpointing during execution of which kernel (1- 1st kernel)
-checkpoint_CTA                         0 #  checkpointing after # of CTA (< less than total CTA)
-resume_option                          0 #  resume flag (0 = no resume)
-resume_kernel                          0 #  Resume from which kernel (1= 1st kernel)
-resume_CTA                             0 #  resume from which CTA 
-checkpoint_CTA_t                       0 #  resume from which CTA 
-checkpoint_insn_Y                      0 #  resume from which CTA 
-gpgpu_ptx_convert_to_ptxplus                    0 # Convert SASS (native ISA) to ptxplus and run ptxplus
-gpgpu_ptx_force_max_capability                   70 # Force maximum compute capability
-gpgpu_ptx_inst_debug_to_file                    0 # Dump executed instructions' debug information to file
-gpgpu_ptx_inst_debug_file       inst_debug.txt # Executed instructions' debug output file
-gpgpu_ptx_inst_debug_thread_uid                    1 # Thread UID for executed instructions' debug output
-gpgpu_n_mem_for_l2wb_pcommit                   32 # number of memory modules (e.g. memory controllers) in gpu
-gpgpu_n_sub_partition_per_mchannel_for_l2wb_pcommit                    2 # number of memory subpartition in each memory module
-gpgpu_dl2_bsize_for_l2wb_pcommit                  128 # default 128 bytes
-gpgpu_simd_model                       1 # 1 = post-dominator
-gpgpu_shader_core_pipeline              2048:32 # shader core pipeline config, i.e., {<nthread>:<warpsize>}
-gpgpu_tex_cache:l1  N:4:128:256,L:R:m:N:L,T:512:8,128:2 # per-shader L1 texture cache  (READ-ONLY) config  {<nsets>:<bsize>:<assoc>,<rep>:<wr>:<alloc>:<wr_alloc>,<mshr>:<N>:<merge>,<mq>:<rf>}
-gpgpu_const_cache:l1 N:128:64:8,L:R:f:N:L,S:2:64,4 # per-shader L1 constant memory cache  (READ-ONLY) config  {<nsets>:<bsize>:<assoc>,<rep>:<wr>:<alloc>:<wr_alloc>,<mshr>:<N>:<merge>,<mq>} 
-gpgpu_cache:il1     N:64:128:16,L:R:f:N:L,S:2:48,4 # shader L1 instruction cache config  {<nsets>:<bsize>:<assoc>,<rep>:<wr>:<alloc>:<wr_alloc>,<mshr>:<N>:<merge>,<mq>} 
-gpgpu_cache:dl1     S:1:128:256,L:L:s:N:L,A:256:8,16:0,32 # per-shader L1 data cache config  {<nsets>:<bsize>:<assoc>,<rep>:<wr>:<alloc>:<wr_alloc>,<mshr>:<N>:<merge>,<mq> | none}
-gpgpu_l1_banks                         4 # The number of L1 cache banks
-gpgpu_l1_banks_byte_interleaving                   32 # l1 banks byte interleaving granularity
-gpgpu_l1_banks_hashing_function                    0 # l1 banks hashing function
-gpgpu_l1_latency                      20 # L1 Hit Latency
-gpgpu_smem_latency                    20 # smem Latency
-gpgpu_cache:dl1PrefL1                 none # per-shader L1 data cache config  {<nsets>:<bsize>:<assoc>,<rep>:<wr>:<alloc>:<wr_alloc>,<mshr>:<N>:<merge>,<mq> | none}
-gpgpu_cache:dl1PrefShared                 none # per-shader L1 data cache config  {<nsets>:<bsize>:<assoc>,<rep>:<wr>:<alloc>:<wr_alloc>,<mshr>:<N>:<merge>,<mq> | none}
-gpgpu_gmem_skip_L1D                    0 # global memory access skip L1D cache (implements -Xptxas -dlcm=cg, default=no skip)
-gpgpu_perfect_mem                      0 # enable perfect memory mode (no cache miss)
-n_regfile_gating_group                    4 # group of lanes that should be read/written together)
-gpgpu_clock_gated_reg_file                    0 # enable clock gated reg file for power calculations
-gpgpu_clock_gated_lanes                    0 # enable clock gated lanes for power calculations
-gpgpu_shader_registers                65536 # Number of registers per shader core. Limits number of concurrent CTAs. (default 8192)
-gpgpu_registers_per_block                65536 # Maximum number of registers per CTA. (default 8192)
-gpgpu_ignore_resources_limitation                    0 # gpgpu_ignore_resources_limitation (default 0)
-gpgpu_shader_cta                      32 # Maximum number of concurrent CTAs in shader (default 8)
-gpgpu_num_cta_barriers                   16 # Maximum number of named barriers per CTA (default 16)
-gpgpu_n_clusters                      80 # number of processing clusters
-gpgpu_n_cores_per_cluster                    1 # number of simd cores per cluster
-gpgpu_n_cluster_ejection_buffer_size                   32 # number of packets in ejection buffer
-gpgpu_n_ldst_response_buffer_size                    2 # number of response packets in ld/st unit ejection buffer
-gpgpu_shmem_per_block                65536 # Size of shared memory per thread block or CTA (default 48kB)
-gpgpu_shmem_size                   98304 # Size of shared memory per shader core (default 16kB)
-gpgpu_adaptive_cache_config            536870913 # adaptive_cache_config
-gpgpu_shmem_sizeDefault                98304 # Size of shared memory per shader core (default 16kB)
-gpgpu_shmem_size_PrefL1                16384 # Size of shared memory per shader core (default 16kB)
-gpgpu_shmem_size_PrefShared                16384 # Size of shared memory per shader core (default 16kB)
-gpgpu_shmem_num_banks                   32 # Number of banks in the shared memory in each shader core (default 16)
-gpgpu_shmem_limited_broadcast                    0 # Limit shared memory to do one broadcast per cycle (default on)
-gpgpu_shmem_warp_parts                    1 # Number of portions a warp is divided into for shared memory bank conflict check 
-gpgpu_mem_unit_ports                    1 # The number of memory transactions allowed per core cycle
-gpgpu_shmem_warp_parts                    1 # Number of portions a warp is divided into for shared memory bank conflict check 
-gpgpu_warpdistro_shader                   -1 # Specify which shader core to collect the warp size distribution from
-gpgpu_warp_issue_shader                    0 # Specify which shader core to collect the warp issue distribution from
-gpgpu_local_mem_map                    1 # Mapping from local memory space address to simulated GPU physical address space (default = enabled)
-gpgpu_num_reg_banks                   16 # Number of register banks (default = 8)
-gpgpu_reg_bank_use_warp_id                    0 # Use warp ID in mapping registers to banks (default = off)
-gpgpu_sub_core_model                    1 # Sub Core Volta/Pascal model (default = off)
-gpgpu_enable_specialized_operand_collector                    0 # enable_specialized_operand_collector
-gpgpu_operand_collector_num_units_sp                    4 # number of collector units (default = 4)
-gpgpu_operand_collector_num_units_dp                    0 # number of collector units (default = 0)
-gpgpu_operand_collector_num_units_sfu                    4 # number of collector units (default = 4)
-gpgpu_operand_collector_num_units_int                    0 # number of collector units (default = 0)
-gpgpu_operand_collector_num_units_tensor_core                    4 # number of collector units (default = 4)
-gpgpu_operand_collector_num_units_mem                    2 # number of collector units (default = 2)
-gpgpu_operand_collector_num_units_gen                    8 # number of collector units (default = 0)
-gpgpu_operand_collector_num_in_ports_sp                    1 # number of collector unit in ports (default = 1)
-gpgpu_operand_collector_num_in_ports_dp                    0 # number of collector unit in ports (default = 0)
-gpgpu_operand_collector_num_in_ports_sfu                    1 # number of collector unit in ports (default = 1)
-gpgpu_operand_collector_num_in_ports_int                    0 # number of collector unit in ports (default = 0)
-gpgpu_operand_collector_num_in_ports_tensor_core                    1 # number of collector unit in ports (default = 1)
-gpgpu_operand_collector_num_in_ports_mem                    1 # number of collector unit in ports (default = 1)
-gpgpu_operand_collector_num_in_ports_gen                    8 # number of collector unit in ports (default = 0)
-gpgpu_operand_collector_num_out_ports_sp                    1 # number of collector unit in ports (default = 1)
-gpgpu_operand_collector_num_out_ports_dp                    0 # number of collector unit in ports (default = 0)
-gpgpu_operand_collector_num_out_ports_sfu                    1 # number of collector unit in ports (default = 1)
-gpgpu_operand_collector_num_out_ports_int                    0 # number of collector unit in ports (default = 0)
-gpgpu_operand_collector_num_out_ports_tensor_core                    1 # number of collector unit in ports (default = 1)
-gpgpu_operand_collector_num_out_ports_mem                    1 # number of collector unit in ports (default = 1)
-gpgpu_operand_collector_num_out_ports_gen                    8 # number of collector unit in ports (default = 0)
-gpgpu_coalesce_arch                   60 # Coalescing arch (GT200 = 13, Fermi = 20)
-gpgpu_num_sched_per_core                    4 # Number of warp schedulers per core
-gpgpu_max_insn_issue_per_warp                    1 # Max number of instructions that can be issued per warp in one cycle by scheduler (either 1 or 2)
-gpgpu_dual_issue_diff_exec_units                    1 # should dual issue use two different execution unit resources (Default = 1)
-gpgpu_simt_core_sim_order                    1 # Select the simulation order of cores in a cluster (0=Fix, 1=Round-Robin)
-gpgpu_pipeline_widths 4,4,4,4,4,4,4,4,4,4,8,4,4 # Pipeline widths ID_OC_SP,ID_OC_DP,ID_OC_INT,ID_OC_SFU,ID_OC_MEM,OC_EX_SP,OC_EX_DP,OC_EX_INT,OC_EX_SFU,OC_EX_MEM,EX_WB,ID_OC_TENSOR_CORE,OC_EX_TENSOR_CORE
-gpgpu_tensor_core_avail                    1 # Tensor Core Available (default=0)
-gpgpu_num_sp_units                     4 # Number of SP units (default=1)
-gpgpu_num_dp_units                     4 # Number of DP units (default=0)
-gpgpu_num_int_units                    4 # Number of INT units (default=0)
-gpgpu_num_sfu_units                    4 # Number of SF units (default=1)
-gpgpu_num_tensor_core_units                    4 # Number of tensor_core units (default=1)
-gpgpu_num_mem_units                    1 # Number if ldst units (default=1) WARNING: not hooked up to anything
-gpgpu_scheduler                      gto # Scheduler configuration: < lrr | gto | two_level_active > If two_level_active:<num_active_warps>:<inner_prioritization>:<outer_prioritization>For complete list of prioritization values see shader.h enum scheduler_prioritization_typeDefault: gto
-gpgpu_concurrent_kernel_sm                    0 # Support concurrent kernels on a SM (default = disabled)
-gpgpu_perfect_inst_const_cache                    1 # perfect inst and const cache mode, so all inst and const hits in the cache(default = disabled)
-gpgpu_inst_fetch_throughput                    4 # the number of fetched intruction per warp each cycle
-gpgpu_reg_file_port_throughput                    2 # the number ports of the register file
-specialized_unit_1         0,4,4,4,4,BRA # specialized unit config {<enabled>,<num_units>:<latency>:<initiation>,<ID_OC_SPEC>:<OC_EX_SPEC>,<NAME>}
-specialized_unit_2         0,4,4,4,4,BRA # specialized unit config {<enabled>,<num_units>:<latency>:<initiation>,<ID_OC_SPEC>:<OC_EX_SPEC>,<NAME>}
-specialized_unit_3         0,4,4,4,4,BRA # specialized unit config {<enabled>,<num_units>:<latency>:<initiation>,<ID_OC_SPEC>:<OC_EX_SPEC>,<NAME>}
-specialized_unit_4         0,4,4,4,4,BRA # specialized unit config {<enabled>,<num_units>:<latency>:<initiation>,<ID_OC_SPEC>:<OC_EX_SPEC>,<NAME>}
-specialized_unit_5         0,4,4,4,4,BRA # specialized unit config {<enabled>,<num_units>:<latency>:<initiation>,<ID_OC_SPEC>:<OC_EX_SPEC>,<NAME>}
-specialized_unit_6         0,4,4,4,4,BRA # specialized unit config {<enabled>,<num_units>:<latency>:<initiation>,<ID_OC_SPEC>:<OC_EX_SPEC>,<NAME>}
-specialized_unit_7         0,4,4,4,4,BRA # specialized unit config {<enabled>,<num_units>:<latency>:<initiation>,<ID_OC_SPEC>:<OC_EX_SPEC>,<NAME>}
-specialized_unit_8         0,4,4,4,4,BRA # specialized unit config {<enabled>,<num_units>:<latency>:<initiation>,<ID_OC_SPEC>:<OC_EX_SPEC>,<NAME>}
-gpgpu_perf_sim_memcpy                    1 # Fill the L2 cache on memcpy
-gpgpu_simple_dram_model                    0 # simple_dram_model with fixed latency and BW
-gpgpu_dram_scheduler                    1 # 0 = fifo, 1 = FR-FCFS (defaul)
-gpgpu_dram_partition_queues          64:64:64:64 # i2$:$2d:d2$:$2i
-l2_ideal                               0 # Use a ideal L2 cache that always hit
-gpgpu_cache:dl2     S:32:128:24,L:B:m:L:P,A:192:4,32:0,32 # unified banked L2 data cache config  {<nsets>:<bsize>:<assoc>,<rep>:<wr>:<alloc>:<wr_alloc>,<mshr>:<N>:<merge>,<mq>}
-gpgpu_cache:dl2_texture_only                    0 # L2 cache used for texture only
-gpgpu_n_mem                           32 # number of memory modules (e.g. memory controllers) in gpu
-gpgpu_n_sub_partition_per_mchannel                    2 # number of memory subpartition in each memory module
-gpgpu_n_mem_per_ctrlr                    1 # number of memory chips per memory controller
-gpgpu_memlatency_stat                   14 # track and display latency statistics 0x2 enables MC, 0x4 enables queue logs
-gpgpu_frfcfs_dram_sched_queue_size                   64 # 0 = unlimited (default); # entries per chip
-gpgpu_dram_return_queue_size                  192 # 0 = unlimited (default); # entries per chip
-gpgpu_dram_buswidth                   16 # default = 4 bytes (8 bytes per cycle at DDR)
-gpgpu_dram_burst_length                    2 # Burst length of each DRAM request (default = 4 data bus cycle)
-dram_data_command_freq_ratio                    2 # Frequency ratio between DRAM data bus and command bus (default = 2 times, i.e. DDR)
-gpgpu_dram_timing_opt nbk=16:CCD=1:RRD=3:RCD=12:RAS=28:RP=12:RC=40: CL=12:WL=2:CDLR=3:WR=10:nbkgrp=4:CCDL=2:RTPL=3 # DRAM timing parameters = {nbk:tCCD:tRRD:tRCD:tRAS:tRP:tRC:CL:WL:tCDLR:tWR:nbkgrp:tCCDL:tRTPL}
-gpgpu_l2_rop_latency                  160 # ROP queue latency (default 85)
-dram_latency                         200 # DRAM latency (default 30)
-dram_write_latency                   600 # DRAM write latency (default 100)
-dram_dual_bus_interface                    1 # dual_bus_interface (default = 0) 
-dram_bnk_indexing_policy                    0 # dram_bnk_indexing_policy (0 = normal indexing, 1 = Xoring with the higher bits) (Default = 0)
-dram_bnkgrp_indexing_policy                    1 # dram_bnkgrp_indexing_policy (0 = take higher bits, 1 = take lower bits) (Default = 0)
-dram_seperate_write_queue_enable                    0 # Seperate_Write_Queue_Enable
-dram_write_queue_size             32:28:16 # Write_Queue_Size
-dram_elimnate_rw_turnaround                    0 # elimnate_rw_turnaround i.e set tWTR and tRTW = 0
-icnt_flit_size                        40 # icnt_flit_size
-gpgpu_mem_addr_mapping dramid@8;00000000.00000000.00000000.00000000.0000RRRR.RRRRRRRR.RBBBCCCB.CCCSSSSS # mapping memory address to dram model {dramid@<start bit>;<memory address map>}
-gpgpu_mem_addr_test                    0 # run sweep test to check address mapping for aliased address
-gpgpu_mem_address_mask                    1 # 0 = old addressing mask, 1 = new addressing mask, 2 = new add. mask + flipped bank sel and chip sel bits
-gpgpu_memory_partition_indexing                    0 # 0 = no indexing, 1 = bitwise xoring, 2 = IPoly, 3 = custom indexing
-gpuwattch_xml_file         gpuwattch.xml # GPUWattch XML file
-power_simulation_enabled                    0 # Turn on power simulator (1=On, 0=Off)
-power_per_cycle_dump                    0 # Dump detailed power output each cycle
-power_trace_enabled                    0 # produce a file for the power trace (1=On, 0=Off)
-power_trace_zlevel                     6 # Compression level of the power trace output log (0=no comp, 9=highest)
-steady_power_levels_enabled                    0 # produce a file for the steady power levels (1=On, 0=Off)
-steady_state_definition                  8:4 # allowed deviation:number of samples
-gpgpu_max_cycle                        0 # terminates gpu simulation early (0 = no limit)
-gpgpu_max_insn                         0 # terminates gpu simulation early (0 = no limit)
-gpgpu_max_cta                          0 # terminates gpu simulation early (0 = no limit)
-gpgpu_max_completed_cta                    0 # terminates gpu simulation early (0 = no limit)
-gpgpu_runtime_stat                   500 # display runtime statistics such as dram utilization {<freq>:<flag>}
-liveness_message_freq                    1 # Minimum number of seconds between simulation liveness messages (0 = always print)
-gpgpu_compute_capability_major                    7 # Major compute capability version number
-gpgpu_compute_capability_minor                    0 # Minor compute capability version number
-gpgpu_flush_l1_cache                    1 # Flush L1 cache at the end of each kernel call
-gpgpu_flush_l2_cache                    0 # Flush L2 cache at the end of each kernel call
-gpgpu_deadlock_detect                    1 # Stop the simulation at deadlock (1=on (default), 0=off)
-gpgpu_ptx_instruction_classification                    0 # if enabled will classify ptx instruction types per kernel (Max 255 kernels now)
-gpgpu_ptx_sim_mode                     0 # Select between Performance (default) or Functional simulation (1)
-gpgpu_clock_domains 1132.0:1132.0:1132.0:850.0 # Clock Domain Frequencies in MhZ {<Core Clock>:<ICNT Clock>:<L2 Clock>:<DRAM Clock>}
-gpgpu_max_concurrent_kernel                    8 # maximum kernels that can run concurrently on GPU
-gpgpu_cflog_interval                    0 # Interval between each snapshot in control flow logger
-visualizer_enabled               3ba0f20a89c5015f1e693112d2550122  /home/pli11/Desktop/re_test/ProgPow/progpow_search/undo_c_wt+idem/main
Extracting PTX file and ptxas options    1: main.1.sm_70.ptx -arch=sm_70
      0 # Turn on visualizer output (1=On, 0=Off)
-visualizer_outputfile                 NULL # Specifies the output log file for visualizer
-visualizer_zlevel                      6 # Compression level of the visualizer output log (0=no comp, 9=highest)
-gpgpu_stack_size_limit                 1024 # GPU thread stack size
-gpgpu_heap_size_limit              8388608 # GPU malloc heap size 
-gpgpu_runtime_sync_depth_limit                    2 # GPU device runtime synchronize depth
-gpgpu_runtime_pending_launch_count_limit                 2048 # GPU device runtime pending launch count
-trace_enabled                          0 # Turn on traces
-trace_components                    none # comma seperated list of traces to enable. Complete list found in trace_streams.tup. Default none
-trace_sampling_core                    0 # The core which is printed using CORE_DPRINTF. Default 0
-trace_sampling_memory_partition                   -1 # The memory partition which is printed using MEMPART_DPRINTF. Default -1 (i.e. all)
-enable_ptx_file_line_stats                    1 # Turn on PTX source line statistic profiling. (1 = On)
-ptx_line_stats_filename gpgpu_inst_stats.txt # Output file for PTX source line statistics.
-gpgpu_kernel_launch_latency                 5000 # Kernel launch latency in cycles. Default: 0
-gpgpu_cdp_enabled                      0 # Turn on CDP
-gpgpu_TB_launch_latency                    0 # thread block launch latency in cycles. Default: 0
DRAM Timing Options:
nbk                                    16 # number of banks
CCD                                     1 # column to column delay
RRD                                     3 # minimal delay between activation of rows in different banks
RCD                                    12 # row to column delay
RAS                                    28 # time needed to activate row
RP                                     12 # time needed to precharge (deactivate) row
RC                                     40 # row cycle time
CDLR                                    3 # switching from write to read (changes tWTR)
WR                                     10 # last data-in to row precharge
CL                                     12 # CAS latency
WL                                      2 # Write latency
nbkgrp                                  4 # number of bank groups
CCDL                                    2 # column to column delay between accesses to different bank groups
RTPL                                    3 # read to precharge delay between accesses to different bank groups
Total number of memory sub partition = 64
addr_dec_mask[CHIP]  = 0000000000001f00 	high:13 low:8
addr_dec_mask[BK]    = 00000000000e2000 	high:20 low:13
addr_dec_mask[ROW]   = 00000001fff00000 	high:33 low:20
addr_dec_mask[COL]   = 000000000001c0ff 	high:17 low:0
addr_dec_mask[BURST] = 000000000000001f 	high:5 low:0
sub_partition_id_mask = 0000000000002000
GPGPU-Sim uArch: clock freqs: 1132000000.000000:1132000000.000000:1132000000.000000:850000000.000000
GPGPU-Sim uArch: clock periods: 0.00000000088339222615:0.00000000088339222615:0.00000000088339222615:0.00000000117647058824
*** Initializing Memory Statistics ***
GPGPU-Sim uArch: performance model initialization complete.
self exe links to: /home/pli11/Desktop/re_test/ProgPow/progpow_search/undo_c_wt+idem/main
self exe links to: /home/pli11/Desktop/re_test/ProgPow/progpow_search/undo_c_wt+idem/main
10.1
GPGPU-Sim PTX: __cudaRegisterFatBinary, fat_cubin_handle = 1, filename=default
self exe links to: /home/pli11/Desktop/re_test/ProgPow/progpow_search/undo_c_wt+idem/main
Running md5sum using "md5sum /home/pli11/Desktop/re_test/ProgPow/progpow_search/undo_c_wt+idem/main "
self exe links to: /home/pli11/Desktop/re_test/ProgPow/progpow_search/undo_c_wt+idem/main
Extracting specific PTX file named main.1.sm_70.ptx 
GPGPU-Sim PTX: __cudaRegisterFunction _Z14progpow_searchm8hash32_tmPK5dag_tP14search_resultsb : hostFun 0x0x412913, fat_cubin_handle = 1
GPGPU-Sim PTX: Parsing main.1.sm_70.ptx
GPGPU-Sim PTX: allocating constant region for "keccakf_rndc" from 0x100 to 0x160 (global memory space) 1
GPGPU-Sim PTX: allocating global region for "NVM_log" from 0x180 to 0x4000180 (global memory space)
GPGPU-Sim PTX: allocating global region for "NVM_flag" from 0x4000180 to 0x4400180 (global memory space)
GPGPU-Sim PTX: allocating shared region for "_ZZ14progpow_searchm8hash32_tmPK5dag_tP14search_resultsbE5c_dag" from 0x0 to 0x4000 (shared memory space)
GPGPU-Sim PTX: Warning -- ignoring pragma 'nounroll'
GPGPU-Sim PTX: Warning -- ignoring pragma 'nounroll'
GPGPU-Sim PTX: Warning -- ignoring pragma 'nounroll'
GPGPU-Sim PTX: instruction assembly for function '_Z14progpow_searchm8hash32_tmPK5dag_tP14search_resultsb'...   done.
GPGPU-Sim PTX: finished parsing EMBEDDED .ptx file main.1.sm_70.ptx
GPGPU-Sim PTX: loading globals with explicit initializers... 
GPGPU-Sim PTX: finished loading globals (0 bytes total).
GPGPU-Sim PTX: loading constants with explicit initializers...  done.
GPGPU-Sim PTX: Loading PTXInfo from main.1.sm_70.ptx
GPGPU-Sim PTX: Binary info : gmem=71303168, cmem=96
GPGPU-Sim PTX: Kernel '_Z14progpow_searchm8hash32_tmPK5dag_tP14search_resultsb' : regs=56, lmem=0, smem=16384, cmem=425
GPGPU-Sim PTX: __cudaRegisterVar: hostVar = 0x41cba0; deviceAddress = keccakf_rndc; deviceName = keccakf_rndc
GPGPU-Sim PTX: __cudaRegisterVar: Registering const memory space of 96 bytes
GPGPU-Sim PTX registering constant keccakf_rndc (96 bytes) to name mapping
GPGPU-Sim PTX: __cudaRegisterVar: hostVar = 0x62b9a0; deviceAddress = NVM_log; deviceName = NVM_log
GPGPU-Sim PTX: __cudaRegisterVar: Registering const memory space of 67108864 bytes
GPGPU-Sim PTX registering global NVM_log hostVar to name mapping
GPGPU-Sim PTX: __cudaRegisterVar: hostVar = 0x462b9a0; deviceAddress = NVM_flag; deviceName = NVM_flag
GPGPU-Sim PTX: __cudaRegisterVar: Registering const memory space of 4194304 bytes
GPGPU-Sim PTX registering global NVM_flag hostVar to name mapping
Set Device to current
Resetting device
Generating mining buffers
GPGPU-Sim PTX: cudaStreamCreate
GPGPU-Sim PTX: cudaStreamCreate
GPGPU-Sim: synchronize waiting for inactive GPU simulation
GPGPU-Sim API: Stream Manager State
GPGPU-Sim: detected inactive GPU simulation thread
GPGPU-Sim PTX: Setting up arguments for 8 bytes starting at 0x7ffeed2c4628..
GPGPU-Sim PTX: Setting up arguments for 32 bytes starting at 0x7ffeed2c46e0..
GPGPU-Sim PTX: Setting up arguments for 8 bytes starting at 0x7ffeed2c4618..
GPGPU-Sim PTX: Setting up arguments for 8 bytes starting at 0x7ffeed2c4610..
GPGPU-Sim PTX: Setting up arguments for 8 bytes starting at 0x7ffeed2c4608..
GPGPU-Sim PTX: Setting up arguments for 1 bytes starting at 0x7ffeed2c4604..

GPGPU-Sim PTX: cudaLaunch for 0x0x412913 (mode=performance simulation) on stream 2
GPGPU-Sim PTX: finding reconvergence points for '_Z14progpow_searchm8hash32_tmPK5dag_tP14search_resultsb'...
GPGPU-Sim PTX: Finding dominators for '_Z14progpow_searchm8hash32_tmPK5dag_tP14search_resultsb'...
GPGPU-Sim PTX: Finding immediate dominators for '_Z14progpow_searchm8hash32_tmPK5dag_tP14search_resultsb'...
GPGPU-Sim PTX: Finding postdominators for '_Z14progpow_searchm8hash32_tmPK5dag_tP14search_resultsb'...
GPGPU-Sim PTX: Finding immediate postdominators for '_Z14progpow_searchm8hash32_tmPK5dag_tP14search_resultsb'...
GPGPU-Sim PTX: pre-decoding instructions for '_Z14progpow_searchm8hash32_tmPK5dag_tP14search_resultsb'...
GPGPU-Sim PTX: reconvergence points for _Z14progpow_searchm8hash32_tmPK5dag_tP14search_resultsb...
GPGPU-Sim PTX:  1 (potential) branch divergence @  PC=0x080 (main.1.sm_70.ptx:51) @%p2 bra BB0_2;
GPGPU-Sim PTX:    immediate post dominator      @  PC=0x0f0 (main.1.sm_70.ptx:72) shl.b32 %r1266, %r3, 2;
GPGPU-Sim PTX:  2 (potential) branch divergence @  PC=0x100 (main.1.sm_70.ptx:74) @%p3 bra BB0_5;
GPGPU-Sim PTX:    immediate post dominator      @  PC=0x180 (main.1.sm_70.ptx:95) bar.sync 0;
GPGPU-Sim PTX:  3 (potential) branch divergence @  PC=0x178 (main.1.sm_70.ptx:92) @%p4 bra BB0_4;
GPGPU-Sim PTX:    immediate post dominator      @  PC=0x180 (main.1.sm_70.ptx:95) bar.sync 0;
GPGPU-Sim PTX:  4 (potential) branch divergence @  PC=0x1378 (main.1.sm_70.ptx:677) @%p7 bra BB0_8;
GPGPU-Sim PTX:    immediate post dominator      @  PC=0x2348 (main.1.sm_70.ptx:1513) mov.u32 %r1260, 4127;
GPGPU-Sim PTX:  5 (potential) branch divergence @  PC=0x1380 (main.1.sm_70.ptx:678) bra.uni BB0_7;
GPGPU-Sim PTX:    immediate post dominator      @  PC=0x1b60 (main.1.sm_70.ptx:1097) mov.u32 %r1258, 4127;
GPGPU-Sim PTX:  6 (potential) branch divergence @  PC=0x1b50 (main.1.sm_70.ptx:1092) @%p11 bra BB0_8;
GPGPU-Sim PTX:    immediate post dominator      @  PC=0x1b58 (main.1.sm_70.ptx:1093) bra.uni BB0_9;
GPGPU-Sim PTX:  7 (potential) branch divergence @  PC=0x1b58 (main.1.sm_70.ptx:1093) bra.uni BB0_9;
GPGPU-Sim PTX:    immediate post dominator      @  PC=0x2348 (main.1.sm_70.ptx:1513) mov.u32 %r1260, 4127;
GPGPU-Sim PTX:  8 (potential) branch divergence @  PC=0x2338 (main.1.sm_70.ptx:1509) @%p9 bra BB0_9;
GPGPU-Sim PTX:    immediate post dominator      @  PC=0x2348 (main.1.sm_70.ptx:1513) mov.u32 %r1260, 4127;
GPGPU-Sim PTX:  9 (potential) branch divergence @  PC=0x2340 (main.1.sm_70.ptx:1510) bra.uni BB0_7;
GPGPU-Sim PTX:    immediate post dominator      @  PC=0x1b60 (main.1.sm_70.ptx:1097) mov.u32 %r1258, 4127;
GPGPU-Sim PTX: 10 (potential) branch divergence @  PC=0x2720 (main.1.sm_70.ptx:1636) @%p28 bra BB0_11;
GPGPU-Sim PTX:    immediate post dominator      @  PC=0x2768 (main.1.sm_70.ptx:1648) add.s32 %r1275, %r1275, 1;
GPGPU-Sim PTX: 11 (potential) branch divergence @  PC=0x2778 (main.1.sm_70.ptx:1650) @%p29 bra BB0_6;
GPGPU-Sim PTX:    immediate post dominator      @  PC=0x2780 (main.1.sm_70.ptx:1652) ld.param.u64 %rd38, [_Z14progpow_searchm8hash32_tmPK5dag_tP14search_resultsb_param_2];
GPGPU-Sim PTX: 12 (potential) branch divergence @  PC=0x2790 (main.1.sm_70.ptx:1654) @%p30 bra BB0_16;
GPGPU-Sim PTX:    immediate post dominator      @  PC=0x2950 (main.1.sm_70.ptx:1740) ret;
GPGPU-Sim PTX: 13 (potential) branch divergence @  PC=0x27b8 (main.1.sm_70.ptx:1660) @%p31 bra BB0_16;
GPGPU-Sim PTX:    immediate post dominator      @  PC=0x2950 (main.1.sm_70.ptx:1740) ret;
GPGPU-Sim PTX: 14 (potential) branch divergence @  PC=0x28d8 (main.1.sm_70.ptx:1717) @!%p1 bra BB0_16;
GPGPU-Sim PTX:    immediate post dominator      @  PC=0x2950 (main.1.sm_70.ptx:1740) ret;
GPGPU-Sim PTX: 15 (potential) branch divergence @  PC=0x28e0 (main.1.sm_70.ptx:1718) bra.uni BB0_15;
GPGPU-Sim PTX:    immediate post dominator      @  PC=0x28e8 (main.1.sm_70.ptx:1721) mov.u32 %r1256, %ctaid.x;
GPGPU-Sim PTX: ... end of reconvergence points for _Z14progpow_searchm8hash32_tmPK5dag_tP14search_resultsb
GPGPU-Sim PTX: ... done pre-decoding instructions for '_Z14progpow_searchm8hash32_tmPK5dag_tP14search_resultsb'.
GPGPU-Sim PTX: pushing kernel '_Z14progpow_searchm8hash32_tmPK5dag_tP14search_resultsb' to stream 2, gridDim= (4,1,1) blockDim = (256,1,1) 
GPGPU-Sim: synchronize waiting for inactive GPU simulation
GPGPU-Sim API: Stream Manager State
GPGPU-Sim API:    stream 2 has 1 operations
GPGPU-Sim API:       0 :  stream operation kernel
GPGPU-Sim uArch: Shader 0 bind to kernel 1 '_Z14progpow_searchm8hash32_tmPK5dag_tP14search_resultsb'
GPGPU-Sim uArch: CTA/core = 4, limited by: regs
GPGPU-Sim: Reconfigure L1 cache to 112KB
GPGPU-Sim uArch: Shader 1 bind to kernel 1 '_Z14progpow_searchm8hash32_tmPK5dag_tP14search_resultsb'
GPGPU-Sim uArch: Shader 2 bind to kernel 1 '_Z14progpow_searchm8hash32_tmPK5dag_tP14search_resultsb'
GPGPU-Sim uArch: Shader 3 bind to kernel 1 '_Z14progpow_searchm8hash32_tmPK5dag_tP14search_resultsb'
Destroy streams for kernel 1: size 0
kernel_name = _Z14progpow_searchm8hash32_tmPK5dag_tP14search_resultsb 
kernel_launch_uid = 1 
gpu_sim_cycle = 1524516
gpu_sim_insn = 276747364
gpu_ipc =     181.5313
gpu_tot_sim_cycle = 1524516
gpu_tot_sim_insn = 276747364
gpu_tot_ipc =     181.5313
gpu_tot_issued_cta = 4
gpu_occupancy = 12.4983% 
gpu_tot_occupancy = 12.4983% 
max_total_param_size = 0
gpu_stall_dramfull = 0
gpu_stall_icnt2sh    = 0
partiton_level_parallism =       0.0081
partiton_level_parallism_total  =       0.0081
partiton_level_parallism_util =       2.1334
partiton_level_parallism_util_total  =       2.1334
L2_BW  =       0.2926 GB/Sec
L2_BW_total  =       0.2926 GB/Sec
gpu_total_sim_rate=86945

========= Core cache stats =========
L1I_cache:
	L1I_total_cache_accesses = 0
	L1I_total_cache_misses = 0
	L1I_total_cache_pending_hits = 0
	L1I_total_cache_reservation_fails = 0
L1D_cache:
	L1D_cache_core[0]: Access = 68354, Miss = 2858, Miss_rate = 0.042, Pending_hits = 0, Reservation_fails = 0
	L1D_cache_core[1]: Access = 68354, Miss = 2858, Miss_rate = 0.042, Pending_hits = 0, Reservation_fails = 0
	L1D_cache_core[2]: Access = 68354, Miss = 2858, Miss_rate = 0.042, Pending_hits = 0, Reservation_fails = 0
	L1D_cache_core[3]: Access = 68354, Miss = 2858, Miss_rate = 0.042, Pending_hits = 0, Reservation_fails = 0
	L1D_cache_core[4]: Access = 0, Miss = 0, Miss_rate = -nan, Pending_hits = 0, Reservation_fails = 0
	L1D_cache_core[5]: Access = 0, Miss = 0, Miss_rate = -nan, Pending_hits = 0, Reservation_fails = 0
	L1D_cache_core[6]: Access = 0, Miss = 0, Miss_rate = -nan, Pending_hits = 0, Reservation_fails = 0
	L1D_cache_core[7]: Access = 0, Miss = 0, Miss_rate = -nan, Pending_hits = 0, Reservation_fails = 0
	L1D_cache_core[8]: Access = 0, Miss = 0, Miss_rate = -nan, Pending_hits = 0, Reservation_fails = 0
	L1D_cache_core[9]: Access = 0, Miss = 0, Miss_rate = -nan, Pending_hits = 0, Reservation_fails = 0
	L1D_cache_core[10]: Access = 0, Miss = 0, Miss_rate = -nan, Pending_hits = 0, Reservation_fails = 0
	L1D_cache_core[11]: Access = 0, Miss = 0, Miss_rate = -nan, Pending_hits = 0, Reservation_fails = 0
	L1D_cache_core[12]: Access = 0, Miss = 0, Miss_rate = -nan, Pending_hits = 0, Reservation_fails = 0
	L1D_cache_core[13]: Access = 0, Miss = 0, Miss_rate = -nan, Pending_hits = 0, Reservation_fails = 0
	L1D_cache_core[14]: Access = 0, Miss = 0, Miss_rate = -nan, Pending_hits = 0, Reservation_fails = 0
	L1D_cache_core[15]: Access = 0, Miss = 0, Miss_rate = -nan, Pending_hits = 0, Reservation_fails = 0
	L1D_cache_core[16]: Access = 0, Miss = 0, Miss_rate = -nan, Pending_hits = 0, Reservation_fails = 0
	L1D_cache_core[17]: Access = 0, Miss = 0, Miss_rate = -nan, Pending_hits = 0, Reservation_fails = 0
	L1D_cache_core[18]: Access = 0, Miss = 0, Miss_rate = -nan, Pending_hits = 0, Reservation_fails = 0
	L1D_cache_core[19]: Access = 0, Miss = 0, Miss_rate = -nan, Pending_hits = 0, Reservation_fails = 0
	L1D_cache_core[20]: Access = 0, Miss = 0, Miss_rate = -nan, Pending_hits = 0, Reservation_fails = 0
	L1D_cache_core[21]: Access = 0, Miss = 0, Miss_rate = -nan, Pending_hits = 0, Reservation_fails = 0
	L1D_cache_core[22]: Access = 0, Miss = 0, Miss_rate = -nan, Pending_hits = 0, Reservation_fails = 0
	L1D_cache_core[23]: Access = 0, Miss = 0, Miss_rate = -nan, Pending_hits = 0, Reservation_fails = 0
	L1D_cache_core[24]: Access = 0, Miss = 0, Miss_rate = -nan, Pending_hits = 0, Reservation_fails = 0
	L1D_cache_core[25]: Access = 0, Miss = 0, Miss_rate = -nan, Pending_hits = 0, Reservation_fails = 0
	L1D_cache_core[26]: Access = 0, Miss = 0, Miss_rate = -nan, Pending_hits = 0, Reservation_fails = 0
	L1D_cache_core[27]: Access = 0, Miss = 0, Miss_rate = -nan, Pending_hits = 0, Reservation_fails = 0
	L1D_cache_core[28]: Access = 0, Miss = 0, Miss_rate = -nan, Pending_hits = 0, Reservation_fails = 0
	L1D_cache_core[29]: Access = 0, Miss = 0, Miss_rate = -nan, Pending_hits = 0, Reservation_fails = 0
	L1D_cache_core[30]: Access = 0, Miss = 0, Miss_rate = -nan, Pending_hits = 0, Reservation_fails = 0
	L1D_cache_core[31]: Access = 0, Miss = 0, Miss_rate = -nan, Pending_hits = 0, Reservation_fails = 0
	L1D_cache_core[32]: Access = 0, Miss = 0, Miss_rate = -nan, Pending_hits = 0, Reservation_fails = 0
	L1D_cache_core[33]: Access = 0, Miss = 0, Miss_rate = -nan, Pending_hits = 0, Reservation_fails = 0
	L1D_cache_core[34]: Access = 0, Miss = 0, Miss_rate = -nan, Pending_hits = 0, Reservation_fails = 0
	L1D_cache_core[35]: Access = 0, Miss = 0, Miss_rate = -nan, Pending_hits = 0, Reservation_fails = 0
	L1D_cache_core[36]: Access = 0, Miss = 0, Miss_rate = -nan, Pending_hits = 0, Reservation_fails = 0
	L1D_cache_core[37]: Access = 0, Miss = 0, Miss_rate = -nan, Pending_hits = 0, Reservation_fails = 0
	L1D_cache_core[38]: Access = 0, Miss = 0, Miss_rate = -nan, Pending_hits = 0, Reservation_fails = 0
	L1D_cache_core[39]: Access = 0, Miss = 0, Miss_rate = -nan, Pending_hits = 0, Reservation_fails = 0
	L1D_cache_core[40]: Access = 0, Miss = 0, Miss_rate = -nan, Pending_hits = 0, Reservation_fails = 0
	L1D_cache_core[41]: Access = 0, Miss = 0, Miss_rate = -nan, Pending_hits = 0, Reservation_fails = 0
	L1D_cache_core[42]: Access = 0, Miss = 0, Miss_rate = -nan, Pending_hits = 0, Reservation_fails = 0
	L1D_cache_core[43]: Access = 0, Miss = 0, Miss_rate = -nan, Pending_hits = 0, Reservation_fails = 0
	L1D_cache_core[44]: Access = 0, Miss = 0, Miss_rate = -nan, Pending_hits = 0, Reservation_fails = 0
	L1D_cache_core[45]: Access = 0, Miss = 0, Miss_rate = -nan, Pending_hits = 0, Reservation_fails = 0
	L1D_cache_core[46]: Access = 0, Miss = 0, Miss_rate = -nan, Pending_hits = 0, Reservation_fails = 0
	L1D_cache_core[47]: Access = 0, Miss = 0, Miss_rate = -nan, Pending_hits = 0, Reservation_fails = 0
	L1D_cache_core[48]: Access = 0, Miss = 0, Miss_rate = -nan, Pending_hits = 0, Reservation_fails = 0
	L1D_cache_core[49]: Access = 0, Miss = 0, Miss_rate = -nan, Pending_hits = 0, Reservation_fails = 0
	L1D_cache_core[50]: Access = 0, Miss = 0, Miss_rate = -nan, Pending_hits = 0, Reservation_fails = 0
	L1D_cache_core[51]: Access = 0, Miss = 0, Miss_rate = -nan, Pending_hits = 0, Reservation_fails = 0
	L1D_cache_core[52]: Access = 0, Miss = 0, Miss_rate = -nan, Pending_hits = 0, Reservation_fails = 0
	L1D_cache_core[53]: Access = 0, Miss = 0, Miss_rate = -nan, Pending_hits = 0, Reservation_fails = 0
	L1D_cache_core[54]: Access = 0, Miss = 0, Miss_rate = -nan, Pending_hits = 0, Reservation_fails = 0
	L1D_cache_core[55]: Access = 0, Miss = 0, Miss_rate = -nan, Pending_hits = 0, Reservation_fails = 0
	L1D_cache_core[56]: Access = 0, Miss = 0, Miss_rate = -nan, Pending_hits = 0, Reservation_fails = 0
	L1D_cache_core[57]: Access = 0, Miss = 0, Miss_rate = -nan, Pending_hits = 0, Reservation_fails = 0
	L1D_cache_core[58]: Access = 0, Miss = 0, Miss_rate = -nan, Pending_hits = 0, Reservation_fails = 0
	L1D_cache_core[59]: Access = 0, Miss = 0, Miss_rate = -nan, Pending_hits = 0, Reservation_fails = 0
	L1D_cache_core[60]: Access = 0, Miss = 0, Miss_rate = -nan, Pending_hits = 0, Reservation_fails = 0
	L1D_cache_core[61]: Access = 0, Miss = 0, Miss_rate = -nan, Pending_hits = 0, Reservation_fails = 0
	L1D_cache_core[62]: Access = 0, Miss = 0, Miss_rate = -nan, Pending_hits = 0, Reservation_fails = 0
	L1D_cache_core[63]: Access = 0, Miss = 0, Miss_rate = -nan, Pending_hits = 0, Reservation_fails = 0
	L1D_cache_core[64]: Access = 0, Miss = 0, Miss_rate = -nan, Pending_hits = 0, Reservation_fails = 0
	L1D_cache_core[65]: Access = 0, Miss = 0, Miss_rate = -nan, Pending_hits = 0, Reservation_fails = 0
	L1D_cache_core[66]: Access = 0, Miss = 0, Miss_rate = -nan, Pending_hits = 0, Reservation_fails = 0
	L1D_cache_core[67]: Access = 0, Miss = 0, Miss_rate = -nan, Pending_hits = 0, Reservation_fails = 0
	L1D_cache_core[68]: Access = 0, Miss = 0, Miss_rate = -nan, Pending_hits = 0, Reservation_fails = 0
	L1D_cache_core[69]: Access = 0, Miss = 0, Miss_rate = -nan, Pending_hits = 0, Reservation_fails = 0
	L1D_cache_core[70]: Access = 0, Miss = 0, Miss_rate = -nan, Pending_hits = 0, Reservation_fails = 0
	L1D_cache_core[71]: Access = 0, Miss = 0, Miss_rate = -nan, Pending_hits = 0, Reservation_fails = 0
	L1D_cache_core[72]: Access = 0, Miss = 0, Miss_rate = -nan, Pending_hits = 0, Reservation_fails = 0
	L1D_cache_core[73]: Access = 0, Miss = 0, Miss_rate = -nan, Pending_hits = 0, Reservation_fails = 0
	L1D_cache_core[74]: Access = 0, Miss = 0, Miss_rate = -nan, Pending_hits = 0, Reservation_fails = 0
	L1D_cache_core[75]: Access = 0, Miss = 0, Miss_rate = -nan, Pending_hits = 0, Reservation_fails = 0
	L1D_cache_core[76]: Access = 0, Miss = 0, Miss_rate = -nan, Pending_hits = 0, Reservation_fails = 0
	L1D_cache_core[77]: Access = 0, Miss = 0, Miss_rate = -nan, Pending_hits = 0, Reservation_fails = 0
	L1D_cache_core[78]: Access = 0, Miss = 0, Miss_rate = -nan, Pending_hits = 0, Reservation_fails = 0
	L1D_cache_core[79]: Access = 0, Miss = 0, Miss_rate = -nan, Pending_hits = 0, Reservation_fails = 0
	L1D_total_cache_accesses = 273416
	L1D_total_cache_misses = 11432
	L1D_total_cache_miss_rate = 0.0418
	L1D_total_cache_pending_hits = 0
	L1D_total_cache_reservation_fails = 0
	L1D_cache_data_port_util = 0.043
	L1D_cache_fill_port_util = 0.000
L1C_cache:
	L1C_total_cache_accesses = 0
	L1C_total_cache_misses = 0
	L1C_total_cache_pending_hits = 0
	L1C_total_cache_reservation_fails = 0
L1T_cache:
	L1T_total_cache_accesses = 0
	L1T_total_cache_misses = 0
	L1T_total_cache_pending_hits = 0
	L1T_total_cache_reservation_fails = 0

Total_core_cache_stats:
	Total_core_cache_stats_breakdown[GLOBAL_ACC_R][HIT] = 261984
	Total_core_cache_stats_breakdown[GLOBAL_ACC_R][HIT_RESERVED] = 0
	Total_core_cache_stats_breakdown[GLOBAL_ACC_R][MISS] = 2064
	Total_core_cache_stats_breakdown[GLOBAL_ACC_R][RESERVATION_FAIL] = 0
	Total_core_cache_stats_breakdown[GLOBAL_ACC_R][SECTOR_MISS] = 144
	Total_core_cache_stats_breakdown[LOCAL_ACC_R][HIT] = 0
	Total_core_cache_stats_breakdown[LOCAL_ACC_R][HIT_RESERVED] = 0
	Total_core_cache_stats_breakdown[LOCAL_ACC_R][MISS] = 0
	Total_core_cache_stats_breakdown[LOCAL_ACC_R][RESERVATION_FAIL] = 0
	Total_core_cache_stats_breakdown[LOCAL_ACC_R][SECTOR_MISS] = 0
	Total_core_cache_stats_breakdown[CONST_ACC_R][HIT] = 0
	Total_core_cache_stats_breakdown[CONST_ACC_R][HIT_RESERVED] = 0
	Total_core_cache_stats_breakdown[CONST_ACC_R][MISS] = 0
	Total_core_cache_stats_breakdown[CONST_ACC_R][RESERVATION_FAIL] = 0
	Total_core_cache_stats_breakdown[CONST_ACC_R][SECTOR_MISS] = 0
	Total_core_cache_stats_breakdown[TEXTURE_ACC_R][HIT] = 0
	Total_core_cache_stats_breakdown[TEXTURE_ACC_R][HIT_RESERVED] = 0
	Total_core_cache_stats_breakdown[TEXTURE_ACC_R][MISS] = 0
	Total_core_cache_stats_breakdown[TEXTURE_ACC_R][RESERVATION_FAIL] = 0
	Total_core_cache_stats_breakdown[TEXTURE_ACC_R][SECTOR_MISS] = 0
	Total_core_cache_stats_breakdown[GLOBAL_ACC_W][HIT] = 0
	Total_core_cache_stats_breakdown[GLOBAL_ACC_W][HIT_RESERVED] = 0
	Total_core_cache_stats_breakdown[GLOBAL_ACC_W][MISS] = 9224
	Total_core_cache_stats_breakdown[GLOBAL_ACC_W][RESERVATION_FAIL] = 0
	Total_core_cache_stats_breakdown[GLOBAL_ACC_W][SECTOR_MISS] = 0
	Total_core_cache_stats_breakdown[LOCAL_ACC_W][HIT] = 0
	Total_core_cache_stats_breakdown[LOCAL_ACC_W][HIT_RESERVED] = 0
	Total_core_cache_stats_breakdown[LOCAL_ACC_W][MISS] = 0
	Total_core_cache_stats_breakdown[LOCAL_ACC_W][RESERVATION_FAIL] = 0
	Total_core_cache_stats_breakdown[LOCAL_ACC_W][SECTOR_MISS] = 0
	Total_core_cache_stats_breakdown[L1_WRBK_ACC][HIT] = 0
	Total_core_cache_stats_breakdown[L1_WRBK_ACC][HIT_RESERVED] = 0
	Total_core_cache_stats_breakdown[L1_WRBK_ACC][MISS] = 0
	Total_core_cache_stats_breakdown[L1_WRBK_ACC][RESERVATION_FAIL] = 0
	Total_core_cache_stats_breakdown[L1_WRBK_ACC][SECTOR_MISS] = 0
	Total_core_cache_stats_breakdown[L2_WRBK_ACC][HIT] = 0
	Total_core_cache_stats_breakdown[L2_WRBK_ACC][HIT_RESERVED] = 0
	Total_core_cache_stats_breakdown[L2_WRBK_ACC][MISS] = 0
	Total_core_cache_stats_breakdown[L2_WRBK_ACC][RESERVATION_FAIL] = 0
	Total_core_cache_stats_breakdown[L2_WRBK_ACC][SECTOR_MISS] = 0
	Total_core_cache_stats_breakdown[INST_ACC_R][HIT] = 0
	Total_core_cache_stats_breakdown[INST_ACC_R][HIT_RESERVED] = 0
	Total_core_cache_stats_breakdown[INST_ACC_R][MISS] = 0
	Total_core_cache_stats_breakdown[INST_ACC_R][RESERVATION_FAIL] = 0
	Total_core_cache_stats_breakdown[INST_ACC_R][SECTOR_MISS] = 0
	Total_core_cache_stats_breakdown[L1_WR_ALLOC_R][HIT] = 0
	Total_core_cache_stats_breakdown[L1_WR_ALLOC_R][HIT_RESERVED] = 0
	Total_core_cache_stats_breakdown[L1_WR_ALLOC_R][MISS] = 0
	Total_core_cache_stats_breakdown[L1_WR_ALLOC_R][RESERVATION_FAIL] = 0
	Total_core_cache_stats_breakdown[L1_WR_ALLOC_R][SECTOR_MISS] = 0
	Total_core_cache_stats_breakdown[L2_WR_ALLOC_R][HIT] = 0
	Total_core_cache_stats_breakdown[L2_WR_ALLOC_R][HIT_RESERVED] = 0
	Total_core_cache_stats_breakdown[L2_WR_ALLOC_R][MISS] = 0
	Total_core_cache_stats_breakdown[L2_WR_ALLOC_R][RESERVATION_FAIL] = 0
	Total_core_cache_stats_breakdown[L2_WR_ALLOC_R][SECTOR_MISS] = 0
	Total_core_cache_stats_breakdown[GLOBAL_ACC_R][TOTAL_ACCESS] = 264192
	Total_core_cache_stats_breakdown[GLOBAL_ACC_W][TOTAL_ACCESS] = 9224

Total_core_cache_fail_stats:
Shader 0 warp_id issue ditsribution:
warp_id:
0, 1, 2, 3, 4, 5, 6, 7, 
distro:
267361, 267334, 267334, 267334, 267334, 267334, 267334, 267334, 
gpgpu_n_tot_thrd_icount = 276896128
gpgpu_n_tot_w_icount = 8653004
gpgpu_n_stall_shd_mem = 738880
gpgpu_n_mem_read_local = 0
gpgpu_n_mem_write_local = 0
gpgpu_n_mem_read_global = 3092
gpgpu_n_mem_write_global = 9224
gpgpu_n_mem_texture = 0
gpgpu_n_mem_const = 0
gpgpu_n_load_insn  = 1053696
gpgpu_n_store_insn = 9224
gpgpu_n_shmem_insn = 11550720
gpgpu_n_sstarr_insn = 0
gpgpu_n_tex_insn = 0
gpgpu_n_const_mem_insn = 0
gpgpu_n_param_mem_insn = 5120
gpgpu_n_shmem_bkconflict = 0
gpgpu_n_cache_bkconflict = 0
gpgpu_n_intrawarp_mshr_merge = 0
gpgpu_n_cmem_portconflict = 0
gpgpu_stall_shd_mem[c_mem][resource_stall] = 0
gpgpu_stall_shd_mem[s_mem][bk_conf] = 497664
gpgpu_stall_shd_mem[gl_mem][resource_stall] = 240224
gpgpu_stall_shd_mem[gl_mem][coal_stall] = 992
gpgpu_stall_shd_mem[gl_mem][data_port_stall] = 0
gpu_reg_bank_conflict_stalls = 0
Warp Occupancy Distribution:
Stall:4143	W0_Idle:46571	W0_Scoreboard:15702582	W1:108	W2:4096	W3:0	W4:0	W5:0	W6:0	W7:0	W8:0	W9:0	W10:0	W11:0	W12:0	W13:0	W14:0	W15:0	W16:0	W17:0	W18:0	W19:0	W20:0	W21:0	W22:0	W23:0	W24:0	W25:0	W26:0	W27:0	W28:0	W29:0	W30:0	W31:0	W32:8550592
single_issue_nums: WS0:2138780	WS1:2138672	WS2:2138672	WS3:2138672	
dual_issue_nums: WS0:0	WS1:0	WS2:0	WS3:0	
traffic_breakdown_coretomem[GLOBAL_ACC_R] = 16544 {8:2068,}
traffic_breakdown_coretomem[GLOBAL_ACC_W] = 368960 {40:9224,}
traffic_breakdown_coretomem[GLOBAL_ATOMIC] = 40960 {40:1024,}
traffic_breakdown_memtocore[GLOBAL_ACC_R] = 82720 {40:2068,}
traffic_breakdown_memtocore[GLOBAL_ACC_W] = 73792 {8:9224,}
traffic_breakdown_memtocore[GLOBAL_ATOMIC] = 40960 {40:1024,}
maxmflatency = 1087 
max_icnt2mem_latency = 315 
maxmrqlatency = 37 
max_icnt2sh_latency = 571 
averagemflatency = 720 
avg_icnt2mem_latency = 32 
avg_mrq_latency = 5 
avg_icnt2sh_latency = 26 
mrq_lat_table:2250 	2539 	3017 	1342 	361 	219 	0 	0 	0 	0 	0 	0 	0 	0 	0 	0 	0 	0 	0 	0 	0 	0 	0 	0 	0 	0 	0 	0 	0 	0 	0 	0 	
dq_lat_table:0 	0 	0 	0 	0 	0 	0 	0 	0 	0 	0 	0 	0 	0 	0 	0 	0 	0 	0 	0 	0 	0 	0 	0 	0 	0 	0 	0 	0 	0 	0 	0 	
mf_lat_table:0 	0 	0 	0 	0 	0 	0 	534 	2069 	9693 	20 	0 	0 	0 	0 	0 	0 	0 	0 	0 	0 	0 	0 	0 	0 	0 	0 	0 	0 	0 	0 	0 	
icnt2mem_lat_table:0 	548 	20 	193 	9184 	1518 	559 	201 	93 	0 	0 	0 	0 	0 	0 	0 	0 	0 	0 	0 	0 	0 	0 	0 	
icnt2sh_lat_table:0 	4419 	2412 	989 	1775 	1531 	615 	459 	67 	49 	0 	0 	0 	0 	0 	0 	0 	0 	0 	0 	0 	0 	0 	0 	
mf_lat_pw_table:0 	0 	0 	0 	0 	0 	0 	3 	4 	9 	0 	0 	0 	0 	0 	0 	0 	0 	0 	0 	0 	0 	0 	0 	0 	0 	0 	0 	0 	0 	0 	0 	
maximum concurrent accesses to same row:
dram[0]:         8         8         0         0         0         0         0         0         0         0         0         0         0         0         0         0 
dram[1]:         8         8         0         0         0         0         0         0         0         0         0         0         0         0         0         0 
dram[2]:         8         8         0         0         0         0         0         0         0         0         0         0         0         0         0         0 
dram[3]:         8         8         0         0         0         0         0         0         0         0         0         0         0         0         0         0 
dram[4]:         8         8         0         0         0         0         0         0         0         0         0         0         0         0         0         0 
dram[5]:         8         8         0         0         0         0         0         0         0         0         0         0         0         0         0         0 
dram[6]:         8         8         0         0         0         0         0         0         0         0         0         0         0         0         0         0 
dram[7]:         8         8         0         0         0         0         0         0         0         0         0         0         0         0         0         0 
dram[8]:         8         8         0         0         0         0         0         0         0         0         0         0         0         0         0         0 
dram[9]:         8         8         0         0         0         0         0         0         0         0         0         0         0         0         0         0 
dram[10]:         8         8         0         0         0         0         0         0         0         0         0         0         0         0         0         0 
dram[11]:         8         8         0         0         0         0         0         0         0         0         0         0         0         0         0         0 
dram[12]:         8         8         0         0         0         0         0         0         0         0         0         0         0         0         0         0 
dram[13]:         8         8         0         0         0         0         0         0         0         0         0         0         0         0         0         0 
dram[14]:         8         8         0         0         0         0         0         0         0         0         0         0         0         0         0         0 
dram[15]:         8         8         0         0         0         0         0         0         0         0         0         0         0         0         0         0 
dram[16]:         8         8         0         0         0         0         0         0         0         0         0         0         0         0         0         0 
dram[17]:         8         8         0         0         0         0         0         0         0         0         0         0         0         0         0         0 
dram[18]:         8         8         0         0         0         0         0         0         0         0         0         0         0         0         0         0 
dram[19]:         8         8         0         0         0         0         0         0         0         0         0         0         0         0         0         0 
dram[20]:         8         8         0         0         0         0         0         0         0         0         0         0         0         0         0         0 
dram[21]:         8         8         0         0         0         0         0         0         0         0         0         0         0         0         0         0 
dram[22]:         8         8         0         0         0         0         0         0         0         0         0         0         0         0         0         0 
dram[23]:         8         8         0         0         0         0         0         0         0         0         0         0         0         0         0         0 
dram[24]:         8         8         0         0         0         0         0         0         0         0         0         0         0         0         0         0 
dram[25]:         8         8         0         0         0         0         0         0         0         0         0         0         0         0         0         0 
dram[26]:         8         8         0         0         0         0         0         0         0         0         0         0         0         0         0         0 
dram[27]:         8         8         0         0         0         0         0         0         0         0         0         0         0         0         0         0 
dram[28]:         8         8         0         0         0         0         0         0         0         0         0         0         0         0         0         0 
dram[29]:         8         8         0         0         0         0         0         0         0         0         0         0         0         0         0         0 
dram[30]:         8         8         0         0         0         0         0         0         0         0         0         0         0         0         0         0 
dram[31]:         8         8         0         0         0         0         0         0         0         0         0         0         0         0         0         0 
maximum service time to same row:
dram[0]:   1514330   1514522         0         0         0         0         0         0         0         0         0         0         0         0         0         0 
dram[1]:   1514351   1514543         0         0         0         0         0         0         0         0         0         0         0         0         0         0 
dram[2]:   1514851   1514983         0         0         0         0         0         0         0         0         0         0         0         0         0         0 
dram[3]:   1514872   1515005         0         0         0         0         0         0         0         0         0         0         0         0         0         0 
dram[4]:   1514783   1515265         0         0         0         0         0         0         0         0         0         0         0         0         0         0 
dram[5]:   1515132   1515288         0         0         0         0         0         0         0         0         0         0         0         0         0         0 
dram[6]:   1515037   1515193         0         0         0         0         0         0         0         0         0         0         0         0         0         0 
dram[7]:   1515060   1515214         0         0         0         0         0         0         0         0         0         0         0         0         0         0 
dram[8]:   1514968   1515126         0         0         0         0         0         0         0         0         0         0         0         0         0         0 
dram[9]:   1514897   1515337         0         0         0         0         0         0         0         0         0         0         0         0         0         0 
dram[10]:   1514805   1515245         0         0         0         0         0         0         0         0         0         0         0         0         0         0 
dram[11]:   1514828   1515266         0         0         0         0         0         0         0         0         0         0         0         0         0         0 
dram[12]:   1515133   1515630         0         0         0         0         0         0         0         0         0         0         0         0         0         0 
dram[13]:   1515161   1515071         0         0         0         0         0         0         0         0         0         0         0         0         0         0 
dram[14]:   1515386   1514976         0         0         0         0         0         0         0         0         0         0         0         0         0         0 
dram[15]:   1515406   1514996         0         0         0         0         0         0         0         0         0         0         0         0         0         0 
dram[16]:   1514247   1513837         0         0         0         0         0         0         0         0         0         0         0         0         0         0 
dram[17]:   1514267   1513861         0         0         0         0         0         0         0         0         0         0         0         0         0         0 
dram[18]:   1514826   1514524         0         0         0         0         0         0         0         0         0         0         0         0         0         0 
dram[19]:   1514847   1514546         0         0         0         0         0         0         0         0         0         0         0         0         0         0 
dram[20]:   1514752   1514452         0         0         0         0         0         0         0         0         0         0         0         0         0         0 
dram[21]:   1514775   1514473         0         0         0         0         0         0         0         0         0         0         0         0         0         0 
dram[22]:   1514687   1514411         0         0         0         0         0         0         0         0         0         0         0         0         0         0 
dram[23]:   1514897   1514431         0         0         0         0         0         0         0         0         0         0         0         0         0         0 
dram[24]:   1514805   1514342         0         0         0         0         0         0         0         0         0         0         0         0         0         0 
dram[25]:   1514828   1514362         0         0         0         0         0         0         0         0         0         0         0         0         0         0 
dram[26]:   1514735   1514274         0         0         0         0         0         0         0         0         0         0         0         0         0         0 
dram[27]:   1515110   1514624         0         0         0         0         0         0         0         0         0         0         0         0         0         0 
dram[28]:   1515471   1514988         0         0         0         0         0         0         0         0         0         0         0         0         0         0 
dram[29]:   1515497   1515011         0         0         0         0         0         0         0         0         0         0         0         0         0         0 
dram[30]:   1515402   1514917         0         0         0         0         0         0         0         0         0         0         0         0         0         0 
dram[31]:   1515427   1515001         0         0         0         0         0         0         0         0         0         0         0         0         0         0 
average row accesses per activate:
dram[0]: 99.500000 68.000000      -nan      -nan      -nan      -nan      -nan      -nan      -nan      -nan      -nan      -nan      -nan      -nan      -nan      -nan 
dram[1]: 100.000000 68.000000      -nan      -nan      -nan      -nan      -nan      -nan      -nan      -nan      -nan      -nan      -nan      -nan      -nan      -nan 
dram[2]: 100.000000 68.000000      -nan      -nan      -nan      -nan      -nan      -nan      -nan      -nan      -nan      -nan      -nan      -nan      -nan      -nan 
dram[3]: 100.000000 68.000000      -nan      -nan      -nan      -nan      -nan      -nan      -nan      -nan      -nan      -nan      -nan      -nan      -nan      -nan 
dram[4]: 100.000000 68.000000      -nan      -nan      -nan      -nan      -nan      -nan      -nan      -nan      -nan      -nan      -nan      -nan      -nan      -nan 
dram[5]: 100.000000 68.000000      -nan      -nan      -nan      -nan      -nan      -nan      -nan      -nan      -nan      -nan      -nan      -nan      -nan      -nan 
dram[6]: 100.000000 68.000000      -nan      -nan      -nan      -nan      -nan      -nan      -nan      -nan      -nan      -nan      -nan      -nan      -nan      -nan 
dram[7]: 100.000000 68.000000      -nan      -nan      -nan      -nan      -nan      -nan      -nan      -nan      -nan      -nan      -nan      -nan      -nan      -nan 
dram[8]: 100.000000 68.000000      -nan      -nan      -nan      -nan      -nan      -nan      -nan      -nan      -nan      -nan      -nan      -nan      -nan      -nan 
dram[9]: 100.000000 68.000000      -nan      -nan      -nan      -nan      -nan      -nan      -nan      -nan      -nan      -nan      -nan      -nan      -nan      -nan 
dram[10]: 100.000000 68.000000      -nan      -nan      -nan      -nan      -nan      -nan      -nan      -nan      -nan      -nan      -nan      -nan      -nan      -nan 
dram[11]: 100.000000 68.000000      -nan      -nan      -nan      -nan      -nan      -nan      -nan      -nan      -nan      -nan      -nan      -nan      -nan      -nan 
dram[12]: 100.000000 68.000000      -nan      -nan      -nan      -nan      -nan      -nan      -nan      -nan      -nan      -nan      -nan      -nan      -nan      -nan 
dram[13]: 100.000000 68.000000      -nan      -nan      -nan      -nan      -nan      -nan      -nan      -nan      -nan      -nan      -nan      -nan      -nan      -nan 
dram[14]: 100.000000 68.000000      -nan      -nan      -nan      -nan      -nan      -nan      -nan      -nan      -nan      -nan      -nan      -nan      -nan      -nan 
dram[15]: 100.000000 68.000000      -nan      -nan      -nan      -nan      -nan      -nan      -nan      -nan      -nan      -nan      -nan      -nan      -nan      -nan 
dram[16]: 68.500000 68.000000      -nan      -nan      -nan      -nan      -nan      -nan      -nan      -nan      -nan      -nan      -nan      -nan      -nan      -nan 
dram[17]: 68.000000 68.000000      -nan      -nan      -nan      -nan      -nan      -nan      -nan      -nan      -nan      -nan      -nan      -nan      -nan      -nan 
dram[18]: 68.000000 68.000000      -nan      -nan      -nan      -nan      -nan      -nan      -nan      -nan      -nan      -nan      -nan      -nan      -nan      -nan 
dram[19]: 68.000000 68.000000      -nan      -nan      -nan      -nan      -nan      -nan      -nan      -nan      -nan      -nan      -nan      -nan      -nan      -nan 
dram[20]: 68.000000 68.000000      -nan      -nan      -nan      -nan      -nan      -nan      -nan      -nan      -nan      -nan      -nan      -nan      -nan      -nan 
dram[21]: 68.000000 68.000000      -nan      -nan      -nan      -nan      -nan      -nan      -nan      -nan      -nan      -nan      -nan      -nan      -nan      -nan 
dram[22]: 68.000000 68.000000      -nan      -nan      -nan      -nan      -nan      -nan      -nan      -nan      -nan      -nan      -nan      -nan      -nan      -nan 
dram[23]: 68.000000 68.000000      -nan      -nan      -nan      -nan      -nan      -nan      -nan      -nan      -nan      -nan      -nan      -nan      -nan      -nan 
dram[24]: 68.000000 68.000000      -nan      -nan      -nan      -nan      -nan      -nan      -nan      -nan      -nan      -nan      -nan      -nan      -nan      -nan 
dram[25]: 68.000000 68.000000      -nan      -nan      -nan      -nan      -nan      -nan      -nan      -nan      -nan      -nan      -nan      -nan      -nan      -nan 
dram[26]: 68.000000 68.000000      -nan      -nan      -nan      -nan      -nan      -nan      -nan      -nan      -nan      -nan      -nan      -nan      -nan      -nan 
dram[27]: 68.000000 68.000000      -nan      -nan      -nan      -nan      -nan      -nan      -nan      -nan      -nan      -nan      -nan      -nan      -nan      -nan 
dram[28]: 68.000000 68.000000      -nan      -nan      -nan      -nan      -nan      -nan      -nan      -nan      -nan      -nan      -nan      -nan      -nan      -nan 
dram[29]: 68.000000 68.000000      -nan      -nan      -nan      -nan      -nan      -nan      -nan      -nan      -nan      -nan      -nan      -nan      -nan      -nan 
dram[30]: 68.000000 68.000000      -nan      -nan      -nan      -nan      -nan      -nan      -nan      -nan      -nan      -nan      -nan      -nan      -nan      -nan 
dram[31]: 68.000000 68.000000      -nan      -nan      -nan      -nan      -nan      -nan      -nan      -nan      -nan      -nan      -nan      -nan      -nan      -nan 
average row locality = 9728/128 = 76.000000
number of total memory accesses made:
dram[0]:         0         0         0         0         0         0         0         0         0         0         0         0         0         0         0         0 
dram[1]:         0         0         0         0         0         0         0         0         0         0         0         0         0         0         0         0 
dram[2]:         0         0         0         0         0         0         0         0         0         0         0         0         0         0         0         0 
dram[3]:         0         0         0         0         0         0         0         0         0         0         0         0         0         0         0         0 
dram[4]:         0         0         0         0         0         0         0         0         0         0         0         0         0         0         0         0 
dram[5]:         0         0         0         0         0         0         0         0         0         0         0         0         0         0         0         0 
dram[6]:         0         0         0         0         0         0         0         0         0         0         0         0         0         0         0         0 
dram[7]:         0         0         0         0         0         0         0         0         0         0         0         0         0         0         0         0 
dram[8]:         0         0         0         0         0         0         0         0         0         0         0         0         0         0         0         0 
dram[9]:         0         0         0         0         0         0         0         0         0         0         0         0         0         0         0         0 
dram[10]:         0         0         0         0         0         0         0         0         0         0         0         0         0         0         0         0 
dram[11]:         0         0         0         0         0         0         0         0         0         0         0         0         0         0         0         0 
dram[12]:         0         0         0         0         0         0         0         0         0         0         0         0         0         0         0         0 
dram[13]:         0         0         0         0         0         0         0         0         0         0         0         0         0         0         0         0 
dram[14]:         0         0         0         0         0         0         0         0         0         0         0         0         0         0         0         0 
dram[15]:         0         0         0         0         0         0         0         0         0         0         0         0         0         0         0         0 
dram[16]:         0         0         0         0         0         0         0         0         0         0         0         0         0         0         0         0 
dram[17]:         0         0         0         0         0         0         0         0         0         0         0         0         0         0         0         0 
dram[18]:         0         0         0         0         0         0         0         0         0         0         0         0         0         0         0         0 
dram[19]:         0         0         0         0         0         0         0         0         0         0         0         0         0         0         0         0 
dram[20]:         0         0         0         0         0         0         0         0         0         0         0         0         0         0         0         0 
dram[21]:         0         0         0         0         0         0         0         0         0         0         0         0         0         0         0         0 
dram[22]:         0         0         0         0         0         0         0         0         0         0         0         0         0         0         0         0 
dram[23]:         0         0         0         0         0         0         0         0         0         0         0         0         0         0         0         0 
dram[24]:         0         0         0         0         0         0         0         0         0         0         0         0         0         0         0         0 
dram[25]:         0         0         0         0         0         0         0         0         0         0         0         0         0         0         0         0 
dram[26]:         0         0         0         0         0         0         0         0         0         0         0         0         0         0         0         0 
dram[27]:         0         0         0         0         0         0         0         0         0         0         0         0         0         0         0         0 
dram[28]:         0         0         0         0         0         0         0         0         0         0         0         0         0         0         0         0 
dram[29]:         0         0         0         0         0         0         0         0         0         0         0         0         0         0         0         0 
dram[30]:         0         0         0         0         0         0         0         0         0         0         0         0         0         0         0         0 
dram[31]:         0         0         0         0         0         0         0         0         0         0         0         0         0         0         0         0 
total accesses: 0
min_bank_accesses = 0!
min_chip_accesses = 0!
number of total read accesses:
dram[0]:         8         8         0         0         0         0         0         0         0         0         0         0         0         0         0         0 
dram[1]:         8         8         0         0         0         0         0         0         0         0         0         0         0         0         0         0 
dram[2]:         8         8         0         0         0         0         0         0         0         0         0         0         0         0         0         0 
dram[3]:         8         8         0         0         0         0         0         0         0         0         0         0         0         0         0         0 
dram[4]:         8         8         0         0         0         0         0         0         0         0         0         0         0         0         0         0 
dram[5]:         8         8         0         0         0         0         0         0         0         0         0         0         0         0         0         0 
dram[6]:         8         8         0         0         0         0         0         0         0         0         0         0         0         0         0         0 
dram[7]:         8         8         0         0         0         0         0         0         0         0         0         0         0         0         0         0 
dram[8]:         8         8         0         0         0         0         0         0         0         0         0         0         0         0         0         0 
dram[9]:         8         8         0         0         0         0         0         0         0         0         0         0         0         0         0         0 
dram[10]:         8         8         0         0         0         0         0         0         0         0         0         0         0         0         0         0 
dram[11]:         8         8         0         0         0         0         0         0         0         0         0         0         0         0         0         0 
dram[12]:         8         8         0         0         0         0         0         0         0         0         0         0         0         0         0         0 
dram[13]:         8         8         0         0         0         0         0         0         0         0         0         0         0         0         0         0 
dram[14]:         8         8         0         0         0         0         0         0         0         0         0         0         0         0         0         0 
dram[15]:         8         8         0         0         0         0         0         0         0         0         0         0         0         0         0         0 
dram[16]:         8         8         0         0         0         0         0         0         0         0         0         0         0         0         0         0 
dram[17]:         8         8         0         0         0         0         0         0         0         0         0         0         0         0         0         0 
dram[18]:         8         8         0         0         0         0         0         0         0         0         0         0         0         0         0         0 
dram[19]:         8         8         0         0         0         0         0         0         0         0         0         0         0         0         0         0 
dram[20]:         8         8         0         0         0         0         0         0         0         0         0         0         0         0         0         0 
dram[21]:         8         8         0         0         0         0         0         0         0         0         0         0         0         0         0         0 
dram[22]:         8         8         0         0         0         0         0         0         0         0         0         0         0         0         0         0 
dram[23]:         8         8         0         0         0         0         0         0         0         0         0         0         0         0         0         0 
dram[24]:         8         8         0         0         0         0         0         0         0         0         0         0         0         0         0         0 
dram[25]:         8         8         0         0         0         0         0         0         0         0         0         0         0         0         0         0 
dram[26]:         8         8         0         0         0         0         0         0         0         0         0         0         0         0         0         0 
dram[27]:         8         8         0         0         0         0         0         0         0         0         0         0         0         0         0         0 
dram[28]:         8         8         0         0         0         0         0         0         0         0         0         0         0         0         0         0 
dram[29]:         8         8         0         0         0         0         0         0         0         0         0         0         0         0         0         0 
dram[30]:         8         8         0         0         0         0         0         0         0         0         0         0         0         0         0         0 
dram[31]:         8         8         0         0         0         0         0         0         0         0         0         0         0         0         0         0 
total dram reads = 512
min_bank_accesses = 0!
chip skew: 16/16 = 1.00
number of total write accesses:
dram[0]:       191       128         0         0         0         0         0         0         0         0         0         0         0         0         0         0 
dram[1]:       192       128         0         0         0         0         0         0         0         0         0         0         0         0         0         0 
dram[2]:       192       128         0         0         0         0         0         0         0         0         0         0         0         0         0         0 
dram[3]:       192       128         0         0         0         0         0         0         0         0         0         0         0         0         0         0 
dram[4]:       192       128         0         0         0         0         0         0         0         0         0         0         0         0         0         0 
dram[5]:       192       128         0         0         0         0         0         0         0         0         0         0         0         0         0         0 
dram[6]:       192       128         0         0         0         0         0         0         0         0         0         0         0         0         0         0 
dram[7]:       192       128         0         0         0         0         0         0         0         0         0         0         0         0         0         0 
dram[8]:       192       128         0         0         0         0         0         0         0         0         0         0         0         0         0         0 
dram[9]:       192       128         0         0         0         0         0         0         0         0         0         0         0         0         0         0 
dram[10]:       192       128         0         0         0         0         0         0         0         0         0         0         0         0         0         0 
dram[11]:       192       128         0         0         0         0         0         0         0         0         0         0         0         0         0         0 
dram[12]:       192       128         0         0         0         0         0         0         0         0         0         0         0         0         0         0 
dram[13]:       192       128         0         0         0         0         0         0         0         0         0         0         0         0         0         0 
dram[14]:       192       128         0         0         0         0         0         0         0         0         0         0         0         0         0         0 
dram[15]:       192       128         0         0         0         0         0         0         0         0         0         0         0         0         0         0 
dram[16]:       129       128         0         0         0         0         0         0         0         0         0         0         0         0         0         0 
dram[17]:       128       128         0         0         0         0         0         0         0         0         0         0         0         0         0         0 
dram[18]:       128       128         0         0         0         0         0         0         0         0         0         0         0         0         0         0 
dram[19]:       128       128         0         0         0         0         0         0         0         0         0         0         0         0         0         0 
dram[20]:       128       128         0         0         0         0         0         0         0         0         0         0         0         0         0         0 
[...]
Bank_Level_Parallism_Col = 1.013504
Bank_Level_Parallism_Ready = 1.011480
write_to_read_ratio_blp_rw_average = 0.963042
GrpLevelPara = 1.013504 

BW Util details:
bwutil = 0.000228 
total_CMD = 3434081 
util_bw = 784 
Wasted_Col = 631 
Wasted_Row = 24 
Idle = 3432642 

BW Util Bottlenecks: 
RCDc_limit = 24 
RCDWRc_limit = 54 
WTRc_limit = 0 
RTWc_limit = 0 
CCDLc_limit = 553 
rwq = 0 
CCDLc_limit_alone = 553 
WTRc_limit_alone = 0 
RTWc_limit_alone = 0 

Commands details: 
total_CMD = 3434081 
n_nop = 3433287 
Read = 16 
Write = 768 
L2_Alloc = 0 
L2_WB = 0 
n_act = 8 
n_pre = 2 
n_ref = 0 
n_req = 784 
total_req = 784 

Dual Bus Interface Util: 
issued_total_row = 10 
issued_total_col = 784 
Row_Bus_Util =  0.000003 
CoL_Bus_Util = 0.000228 
Either_Row_CoL_Bus_Util = 0.000231 
Issued_on_Two_Bus_Simul_Util = 0.000000 
issued_two_Eff = 0.000000 
queue_avg = 0.000438 


dram_util_bins: 0 0 0 0 0 0 0 0 0 0
dram_eff_bins: 0 0 0 0 0 0 0 0 0 0
mrqq: max=6 avg=0.000437672
Memory Partition 28: 
Cache L2_bank_056:
MSHR contents

Cache L2_bank_057:
MSHR contents

In Dram Latency Queue (total = 0): 
DRAM[28]: 16 bks, busW=16 BL=2 CL=12, tRRD=3 tCCD=1, tRCD=12 tRAS=28 tRP=12 tRC=40
n_cmd=3434081 n_nop=3433287 n_act=8 n_pre=2 n_ref_event=0 n_req=784 n_rd=16 n_rd_L2_A=0 n_write=768 n_wr_bk=0 bw_util=0.0002283
n_activity=2212 dram_eff=0.3544
bk0: 8a 3433942i bk1: 8a 3433942i bk2: 0a 3434081i bk3: 0a 3434081i bk4: 0a 3433976i bk5: 0a 3433961i bk6: 0a 3434081i bk7: 0a 3434081i bk8: 0a 3433975i bk9: 0a 3433979i bk10: 0a 3434081i bk11: 0a 3434081i bk12: 0a 3434081i bk13: 0a 3434081i bk14: 0a 3434081i bk15: 0a 3434081i 

------------------------------------------------------------------------

Row_Buffer_Locality = 0.989796
Row_Buffer_Locality_read = 0.875000
Row_Buffer_Locality_write = 0.992188
Bank_Level_Parallism = 1.006734
Bank_Level_Parallism_Col = 1.006882
Bank_Level_Parallism_Ready = 1.003826
write_to_read_ratio_blp_rw_average = 0.964212
GrpLevelPara = 1.006882 

BW Util details:
bwutil = 0.000228 
total_CMD = 3434081 
util_bw = 784 
Wasted_Col = 677 
Wasted_Row = 24 
Idle = 3432596 

BW Util Bottlenecks: 
RCDc_limit = 24 
RCDWRc_limit = 54 
WTRc_limit = 0 
RTWc_limit = 0 
CCDLc_limit = 599 
rwq = 0 
CCDLc_limit_alone = 599 
WTRc_limit_alone = 0 
RTWc_limit_alone = 0 

Commands details: 
total_CMD = 3434081 
n_nop = 3433287 
Read = 16 
Write = 768 
L2_Alloc = 0 
L2_WB = 0 
n_act = 8 
n_pre = 2 
n_ref = 0 
n_req = 784 
total_req = 784 

Dual Bus Interface Util: 
issued_total_row = 10 
issued_total_col = 784 
Row_Bus_Util =  0.000003 
CoL_Bus_Util = 0.000228 
Either_Row_CoL_Bus_Util = 0.000231 
Issued_on_Two_Bus_Simul_Util = 0.000000 
issued_two_Eff = 0.000000 
queue_avg = 0.000509 


dram_util_bins: 0 0 0 0 0 0 0 0 0 0
dram_eff_bins: 0 0 0 0 0 0 0 0 0 0
mrqq: max=7 avg=0.000508724
Memory Partition 29: 
Cache L2_bank_058:
MSHR contents

Cache L2_bank_059:
MSHR contents

In Dram Latency Queue (total = 0): 
DRAM[29]: 16 bks, busW=16 BL=2 CL=12, tRRD=3 tCCD=1, tRCD=12 tRAS=28 tRP=12 tRC=40
n_cmd=3434081 n_nop=3433287 n_act=8 n_pre=2 n_ref_event=0 n_req=784 n_rd=16 n_rd_L2_A=0 n_write=768 n_wr_bk=0 bw_util=0.0002283
n_activity=2165 dram_eff=0.3621
bk0: 8a 3433948i bk1: 8a 3433943i bk2: 0a 3434081i bk3: 0a 3434081i bk4: 0a 3433975i bk5: 0a 3433960i bk6: 0a 3434081i bk7: 0a 3434081i bk8: 0a 3433976i bk9: 0a 3433961i bk10: 0a 3434081i bk11: 0a 3434081i bk12: 0a 3434081i bk13: 0a 3434081i bk14: 0a 3434081i bk15: 0a 3434081i 

------------------------------------------------------------------------

Row_Buffer_Locality = 0.989796
Row_Buffer_Locality_read = 0.875000
Row_Buffer_Locality_write = 0.992188
Bank_Level_Parallism = 1.010054
Bank_Level_Parallism_Col = 1.010274
Bank_Level_Parallism_Ready = 1.008929
write_to_read_ratio_blp_rw_average = 0.964384
GrpLevelPara = 1.010274 

BW Util details:
bwutil = 0.000228 
total_CMD = 3434081 
util_bw = 784 
Wasted_Col = 684 
Wasted_Row = 24 
Idle = 3432589 

BW Util Bottlenecks: 
RCDc_limit = 24 
RCDWRc_limit = 54 
WTRc_limit = 0 
RTWc_limit = 0 
CCDLc_limit = 606 
rwq = 0 
CCDLc_limit_alone = 606 
WTRc_limit_alone = 0 
RTWc_limit_alone = 0 

Commands details: 
total_CMD = 3434081 
n_nop = 3433287 
Read = 16 
Write = 768 
L2_Alloc = 0 
L2_WB = 0 
n_act = 8 
n_pre = 2 
n_ref = 0 
n_req = 784 
total_req = 784 

Dual Bus Interface Util: 
issued_total_row = 10 
issued_total_col = 784 
Row_Bus_Util =  0.000003 
CoL_Bus_Util = 0.000228 
Either_Row_CoL_Bus_Util = 0.000231 
Issued_on_Two_Bus_Simul_Util = 0.000000 
issued_two_Eff = 0.000000 
queue_avg = 0.000544 


dram_util_bins: 0 0 0 0 0 0 0 0 0 0
dram_eff_bins: 0 0 0 0 0 0 0 0 0 0
mrqq: max=6 avg=0.00054425
Memory Partition 30: 
Cache L2_bank_060:
MSHR contents

Cache L2_bank_061:
MSHR contents

In Dram Latency Queue (total = 0): 
DRAM[30]: 16 bks, busW=16 BL=2 CL=12, tRRD=3 tCCD=1, tRCD=12 tRAS=28 tRP=12 tRC=40
n_cmd=3434081 n_nop=3433287 n_act=8 n_pre=2 n_ref_event=0 n_req=784 n_rd=16 n_rd_L2_A=0 n_write=768 n_wr_bk=0 bw_util=0.0002283
n_activity=2199 dram_eff=0.3565
bk0: 8a 3433945i bk1: 8a 3433936i bk2: 0a 3434081i bk3: 0a 3434081i bk4: 0a 3433979i bk5: 0a 3433973i bk6: 0a 3434081i bk7: 0a 3434081i bk8: 0a 3433975i bk9: 0a 3433960i bk10: 0a 3434081i bk11: 0a 3434081i bk12: 0a 3434081i bk13: 0a 3434081i bk14: 0a 3434081i bk15: 0a 3434081i 

------------------------------------------------------------------------

Row_Buffer_Locality = 0.989796
Row_Buffer_Locality_read = 0.875000
Row_Buffer_Locality_write = 0.992188
Bank_Level_Parallism = 1.003340
Bank_Level_Parallism_Col = 1.003413
Bank_Level_Parallism_Ready = 1.005102
write_to_read_ratio_blp_rw_average = 0.964505
GrpLevelPara = 1.003413 

BW Util details:
bwutil = 0.000228 
total_CMD = 3434081 
util_bw = 784 
Wasted_Col = 689 
Wasted_Row = 24 
Idle = 3432584 

BW Util Bottlenecks: 
RCDc_limit = 24 
RCDWRc_limit = 54 
WTRc_limit = 0 
RTWc_limit = 0 
CCDLc_limit = 611 
rwq = 0 
CCDLc_limit_alone = 611 
WTRc_limit_alone = 0 
RTWc_limit_alone = 0 

Commands details: 
total_CMD = 3434081 
n_nop = 3433287 
Read = 16 
Write = 768 
L2_Alloc = 0 
L2_WB = 0 
n_act = 8 
n_pre = 2 
n_ref = 0 
n_req = 784 
total_req = 784 

Dual Bus Interface Util: 
issued_total_row = 10 
issued_total_col = 784 
Row_Bus_Util =  0.000003 
CoL_Bus_Util = 0.000228 
Either_Row_CoL_Bus_Util = 0.000231 
Issued_on_Two_Bus_Simul_Util = 0.000000 
issued_two_Eff = 0.000000 
queue_avg = 0.000540 


dram_util_bins: 0 0 0 0 0 0 0 0 0 0
dram_eff_bins: 0 0 0 0 0 0 0 0 0 0
mrqq: max=6 avg=0.000539882
Memory Partition 31: 
Cache L2_bank_062:
MSHR contents

Cache L2_bank_063:
MSHR contents

In Dram Latency Queue (total = 0): 
DRAM[31]: 16 bks, busW=16 BL=2 CL=12, tRRD=3 tCCD=1, tRCD=12 tRAS=28 tRP=12 tRC=40
n_cmd=3434081 n_nop=3433287 n_act=8 n_pre=2 n_ref_event=0 n_req=784 n_rd=16 n_rd_L2_A=0 n_write=768 n_wr_bk=0 bw_util=0.0002283
n_activity=2275 dram_eff=0.3446
bk0: 8a 3433938i bk1: 8a 3433938i bk2: 0a 3434081i bk3: 0a 3434081i bk4: 0a 3433989i bk5: 0a 3433980i bk6: 0a 3434081i bk7: 0a 3434081i bk8: 0a 3433979i bk9: 0a 3433973i bk10: 0a 3434081i bk11: 0a 3434081i bk12: 0a 3434081i bk13: 0a 3434081i bk14: 0a 3434081i bk15: 0a 3434081i 

------------------------------------------------------------------------

Row_Buffer_Locality = 0.989796
Row_Buffer_Locality_read = 0.875000
Row_Buffer_Locality_write = 0.992188
Bank_Level_Parallism = 1.003406
Bank_Level_Parallism_Col = 1.003482
Bank_Level_Parallism_Ready = 1.001276
write_to_read_ratio_blp_rw_average = 0.963788
GrpLevelPara = 1.003482 

BW Util details:
bwutil = 0.000228 
total_CMD = 3434081 
util_bw = 784 
Wasted_Col = 660 
Wasted_Row = 24 
Idle = 3432613 

BW Util Bottlenecks: 
RCDc_limit = 24 
RCDWRc_limit = 54 
WTRc_limit = 0 
RTWc_limit = 0 
CCDLc_limit = 582 
rwq = 0 
CCDLc_limit_alone = 582 
WTRc_limit_alone = 0 
RTWc_limit_alone = 0 

Commands details: 
total_CMD = 3434081 
n_nop = 3433287 
Read = 16 
Write = 768 
L2_Alloc = 0 
L2_WB = 0 
n_act = 8 
n_pre = 2 
n_ref = 0 
n_req = 784 
total_req = 784 

Dual Bus Interface Util: 
issued_total_row = 10 
issued_total_col = 784 
Row_Bus_Util =  0.000003 
CoL_Bus_Util = 0.000228 
Either_Row_CoL_Bus_Util = 0.000231 
Issued_on_Two_Bus_Simul_Util = 0.000000 
issued_two_Eff = 0.000000 
queue_avg = 0.000437 


dram_util_bins: 0 0 0 0 0 0 0 0 0 0
dram_eff_bins: 0 0 0 0 0 0 0 0 0 0
mrqq: max=6 avg=0.00043738

========= L2 cache stats =========
L2_cache_bank[0]: Access = 1567, Miss = 8, Miss_rate = 0.005, Pending_hits = 24, Reservation_fails = 0
L2_cache_bank[1]: Access = 480, Miss = 8, Miss_rate = 0.017, Pending_hits = 24, Reservation_fails = 0
L2_cache_bank[2]: Access = 1655, Miss = 32, Miss_rate = 0.019, Pending_hits = 24, Reservation_fails = 0
L2_cache_bank[3]: Access = 480, Miss = 8, Miss_rate = 0.017, Pending_hits = 24, Reservation_fails = 0
L2_cache_bank[4]: Access = 1779, Miss = 8, Miss_rate = 0.004, Pending_hits = 24, Reservation_fails = 0
L2_cache_bank[5]: Access = 480, Miss = 8, Miss_rate = 0.017, Pending_hits = 24, Reservation_fails = 0
L2_cache_bank[6]: Access = 672, Miss = 8, Miss_rate = 0.012, Pending_hits = 24, Reservation_fails = 0
L2_cache_bank[7]: Access = 480, Miss = 8, Miss_rate = 0.017, Pending_hits = 24, Reservation_fails = 0
L2_cache_bank[8]: Access = 672, Miss = 8, Miss_rate = 0.012, Pending_hits = 24, Reservation_fails = 0
L2_cache_bank[9]: Access = 480, Miss = 8, Miss_rate = 0.017, Pending_hits = 24, Reservation_fails = 0
L2_cache_bank[10]: Access = 672, Miss = 8, Miss_rate = 0.012, Pending_hits = 24, Reservation_fails = 0
L2_cache_bank[11]: Access = 480, Miss = 8, Miss_rate = 0.017, Pending_hits = 24, Reservation_fails = 0
L2_cache_bank[12]: Access = 672, Miss = 8, Miss_rate = 0.012, Pending_hits = 24, Reservation_fails = 0
L2_cache_bank[13]: Access = 480, Miss = 8, Miss_rate = 0.017, Pending_hits = 24, Reservation_fails = 0
L2_cache_bank[14]: Access = 672, Miss = 8, Miss_rate = 0.012, Pending_hits = 24, Reservation_fails = 0
L2_cache_bank[15]: Access = 480, Miss = 8, Miss_rate = 0.017, Pending_hits = 24, Reservation_fails = 0
L2_cache_bank[16]: Access = 672, Miss = 8, Miss_rate = 0.012, Pending_hits = 24, Reservation_fails = 0
L2_cache_bank[17]: Access = 480, Miss = 8, Miss_rate = 0.017, Pending_hits = 24, Reservation_fails = 0
L2_cache_bank[18]: Access = 672, Miss = 8, Miss_rate = 0.012, Pending_hits = 24, Reservation_fails = 0
L2_cache_bank[19]: Access = 480, Miss = 8, Miss_rate = 0.017, Pending_hits = 24, Reservation_fails = 0
L2_cache_bank[20]: Access = 672, Miss = 8, Miss_rate = 0.012, Pending_hits = 24, Reservation_fails = 0
L2_cache_bank[21]: Access = 480, Miss = 8, Miss_rate = 0.017, Pending_hits = 24, Reservation_fails = 0
L2_cache_bank[22]: Access = 672, Miss = 8, Miss_rate = 0.012, Pending_hits = 24, Reservation_fails = 0
L2_cache_bank[23]: Access = 480, Miss = 8, Miss_rate = 0.017, Pending_hits = 24, Reservation_fails = 0
L2_cache_bank[24]: Access = 672, Miss = 8, Miss_rate = 0.012, Pending_hits = 24, Reservation_fails = 0
L2_cache_bank[25]: Access = 480, Miss = 8, Miss_rate = 0.017, Pending_hits = 24, Reservation_fails = 0
L2_cache_bank[26]: Access = 672, Miss = 8, Miss_rate = 0.012, Pending_hits = 24, Reservation_fails = 0
L2_cache_bank[27]: Access = 480, Miss = 8, Miss_rate = 0.017, Pending_hits = 24, Reservation_fails = 0
L2_cache_bank[28]: Access = 672, Miss = 8, Miss_rate = 0.012, Pending_hits = 24, Reservation_fails = 0
L2_cache_bank[29]: Access = 480, Miss = 8, Miss_rate = 0.017, Pending_hits = 24, Reservation_fails = 0
L2_cache_bank[30]: Access = 672, Miss = 8, Miss_rate = 0.012, Pending_hits = 24, Reservation_fails = 0
L2_cache_bank[31]: Access = 480, Miss = 8, Miss_rate = 0.017, Pending_hits = 24, Reservation_fails = 0
L2_cache_bank[32]: Access = 609, Miss = 8, Miss_rate = 0.013, Pending_hits = 24, Reservation_fails = 0
L2_cache_bank[33]: Access = 480, Miss = 8, Miss_rate = 0.017, Pending_hits = 24, Reservation_fails = 0
L2_cache_bank[34]: Access = 545, Miss = 8, Miss_rate = 0.015, Pending_hits = 24, Reservation_fails = 0
L2_cache_bank[35]: Access = 480, Miss = 8, Miss_rate = 0.017, Pending_hits = 24, Reservation_fails = 0
L2_cache_bank[36]: Access = 481, Miss = 8, Miss_rate = 0.017, Pending_hits = 24, Reservation_fails = 0
L2_cache_bank[37]: Access = 480, Miss = 8, Miss_rate = 0.017, Pending_hits = 24, Reservation_fails = 0
L2_cache_bank[38]: Access = 480, Miss = 8, Miss_rate = 0.017, Pending_hits = 24, Reservation_fails = 0
L2_cache_bank[39]: Access = 480, Miss = 8, Miss_rate = 0.017, Pending_hits = 24, Reservation_fails = 0
L2_cache_bank[40]: Access = 480, Miss = 8, Miss_rate = 0.017, Pending_hits = 24, Reservation_fails = 0
L2_cache_bank[41]: Access = 480, Miss = 8, Miss_rate = 0.017, Pending_hits = 24, Reservation_fails = 0
L2_cache_bank[42]: Access = 480, Miss = 8, Miss_rate = 0.017, Pending_hits = 24, Reservation_fails = 0
L2_cache_bank[43]: Access = 480, Miss = 8, Miss_rate = 0.017, Pending_hits = 24, Reservation_fails = 0
L2_cache_bank[44]: Access = 480, Miss = 8, Miss_rate = 0.017, Pending_hits = 24, Reservation_fails = 0
L2_cache_bank[45]: Access = 480, Miss = 8, Miss_rate = 0.017, Pending_hits = 24, Reservation_fails = 0
L2_cache_bank[46]: Access = 480, Miss = 8, Miss_rate = 0.017, Pending_hits = 24, Reservation_fails = 0
L2_cache_bank[47]: Access = 480, Miss = 8, Miss_rate = 0.017, Pending_hits = 24, Reservation_fails = 0
L2_cache_bank[48]: Access = 480, Miss = 8, Miss_rate = 0.017, Pending_hits = 24, Reservation_fails = 0
L2_cache_bank[49]: Access = 480, Miss = 8, Miss_rate = 0.017, Pending_hits = 24, Reservation_fails = 0
L2_cache_bank[50]: Access = 480, Miss = 8, Miss_rate = 0.017, Pending_hits = 24, Reservation_fails = 0
L2_cache_bank[51]: Access = 480, Miss = 8, Miss_rate = 0.017, Pending_hits = 24, Reservation_fails = 0
L2_cache_bank[52]: Access = 480, Miss = 8, Miss_rate = 0.017, Pending_hits = 24, Reservation_fails = 0
L2_cache_bank[53]: Access = 480, Miss = 8, Miss_rate = 0.017, Pending_hits = 24, Reservation_fails = 0
L2_cache_bank[54]: Access = 480, Miss = 8, Miss_rate = 0.017, Pending_hits = 24, Reservation_fails = 0
L2_cache_bank[55]: Access = 480, Miss = 8, Miss_rate = 0.017, Pending_hits = 24, Reservation_fails = 0
L2_cache_bank[56]: Access = 480, Miss = 8, Miss_rate = 0.017, Pending_hits = 24, Reservation_fails = 0
L2_cache_bank[57]: Access = 480, Miss = 8, Miss_rate = 0.017, Pending_hits = 24, Reservation_fails = 0
L2_cache_bank[58]: Access = 480, Miss = 8, Miss_rate = 0.017, Pending_hits = 24, Reservation_fails = 0
L2_cache_bank[59]: Access = 480, Miss = 8, Miss_rate = 0.017, Pending_hits = 24, Reservation_fails = 0
L2_cache_bank[60]: Access = 480, Miss = 8, Miss_rate = 0.017, Pending_hits = 24, Reservation_fails = 0
L2_cache_bank[61]: Access = 480, Miss = 8, Miss_rate = 0.017, Pending_hits = 24, Reservation_fails = 0
L2_cache_bank[62]: Access = 480, Miss = 8, Miss_rate = 0.017, Pending_hits = 24, Reservation_fails = 0
L2_cache_bank[63]: Access = 480, Miss = 8, Miss_rate = 0.017, Pending_hits = 24, Reservation_fails = 0
L2_total_cache_accesses = 36972
L2_total_cache_misses = 536
L2_total_cache_miss_rate = 0.0145
L2_total_cache_pending_hits = 1536
L2_total_cache_reservation_fails = 0
L2_total_cache_breakdown:
	L2_cache_stats_breakdown[GLOBAL_ACC_R][HIT] = 7252
	L2_cache_stats_breakdown[GLOBAL_ACC_R][HIT_RESERVED] = 1536
	L2_cache_stats_breakdown[GLOBAL_ACC_R][MISS] = 128
	L2_cache_stats_breakdown[GLOBAL_ACC_R][RESERVATION_FAIL] = 0
	L2_cache_stats_breakdown[GLOBAL_ACC_R][SECTOR_MISS] = 384
	L2_cache_stats_breakdown[LOCAL_ACC_R][HIT] = 0
	L2_cache_stats_breakdown[LOCAL_ACC_R][HIT_RESERVED] = 0
	L2_cache_stats_breakdown[LOCAL_ACC_R][MISS] = 0
	L2_cache_stats_breakdown[LOCAL_ACC_R][RESERVATION_FAIL] = 0
	L2_cache_stats_breakdown[LOCAL_ACC_R][SECTOR_MISS] = 0
	L2_cache_stats_breakdown[CONST_ACC_R][HIT] = 0
	L2_cache_stats_breakdown[CONST_ACC_R][HIT_RESERVED] = 0
	L2_cache_stats_breakdown[CONST_ACC_R][MISS] = 0
	L2_cache_stats_breakdown[CONST_ACC_R][RESERVATION_FAIL] = 0
	L2_cache_stats_breakdown[CONST_ACC_R][SECTOR_MISS] = 0
	L2_cache_stats_breakdown[TEXTURE_ACC_R][HIT] = 0
	L2_cache_stats_breakdown[TEXTURE_ACC_R][HIT_RESERVED] = 0
	L2_cache_stats_breakdown[TEXTURE_ACC_R][MISS] = 0
	L2_cache_stats_breakdown[TEXTURE_ACC_R][RESERVATION_FAIL] = 0
	L2_cache_stats_breakdown[TEXTURE_ACC_R][SECTOR_MISS] = 0
	L2_cache_stats_breakdown[GLOBAL_ACC_W][HIT] = 27648
	L2_cache_stats_breakdown[GLOBAL_ACC_W][HIT_RESERVED] = 0
	L2_cache_stats_breakdown[GLOBAL_ACC_W][MISS] = 1
	L2_cache_stats_breakdown[GLOBAL_ACC_W][RESERVATION_FAIL] = 0
	L2_cache_stats_breakdown[GLOBAL_ACC_W][SECTOR_MISS] = 23
	L2_cache_stats_breakdown[LOCAL_ACC_W][HIT] = 0
	L2_cache_stats_breakdown[LOCAL_ACC_W][HIT_RESERVED] = 0
	L2_cache_stats_breakdown[LOCAL_ACC_W][MISS] = 0
	L2_cache_stats_breakdown[LOCAL_ACC_W][RESERVATION_FAIL] = 0
	L2_cache_stats_breakdown[LOCAL_ACC_W][SECTOR_MISS] = 0
	L2_cache_stats_breakdown[L1_WRBK_ACC][HIT] = 0
	L2_cache_stats_breakdown[L1_WRBK_ACC][HIT_RESERVED] = 0
	L2_cache_stats_breakdown[L1_WRBK_ACC][MISS] = 0
	L2_cache_stats_breakdown[L1_WRBK_ACC][RESERVATION_FAIL] = 0
	L2_cache_stats_breakdown[L1_WRBK_ACC][SECTOR_MISS] = 0
	L2_cache_stats_breakdown[L2_WRBK_ACC][HIT] = 0
	L2_cache_stats_breakdown[L2_WRBK_ACC][HIT_RESERVED] = 0
	L2_cache_stats_breakdown[L2_WRBK_ACC][MISS] = 0
	L2_cache_stats_breakdown[L2_WRBK_ACC][RESERVATION_FAIL] = 0
	L2_cache_stats_breakdown[L2_WRBK_ACC][SECTOR_MISS] = 0
	L2_cache_stats_breakdown[INST_ACC_R][HIT] = 0
	L2_cache_stats_breakdown[INST_ACC_R][HIT_RESERVED] = 0
	L2_cache_stats_breakdown[INST_ACC_R][MISS] = 0
	L2_cache_stats_breakdown[INST_ACC_R][RESERVATION_FAIL] = 0
	L2_cache_stats_breakdown[INST_ACC_R][SECTOR_MISS] = 0
	L2_cache_stats_breakdown[L1_WR_ALLOC_R][HIT] = 0
	L2_cache_stats_breakdown[L1_WR_ALLOC_R][HIT_RESERVED] = 0
	L2_cache_stats_breakdown[L1_WR_ALLOC_R][MISS] = 0
	L2_cache_stats_breakdown[L1_WR_ALLOC_R][RESERVATION_FAIL] = 0
	L2_cache_stats_breakdown[L1_WR_ALLOC_R][SECTOR_MISS] = 0
	L2_cache_stats_breakdown[L2_WR_ALLOC_R][HIT] = 0
	L2_cache_stats_breakdown[L2_WR_ALLOC_R][HIT_RESERVED] = 0
	L2_cache_stats_breakdown[L2_WR_ALLOC_R][MISS] = 0
	L2_cache_stats_breakdown[L2_WR_ALLOC_R][RESERVATION_FAIL] = 0
	L2_cache_stats_breakdown[L2_WR_ALLOC_R][SECTOR_MISS] = 0
	L2_cache_stats_breakdown[GLOBAL_ACC_R][TOTAL_ACCESS] = 9300
	L2_cache_stats_breakdown[GLOBAL_ACC_W][TOTAL_ACCESS] = 27672
L2_total_cache_reservation_fail_breakdown:
L2_cache_data_port_util = 0.000
L2_cache_fill_port_util = 0.000

icnt_total_pkts_mem_to_simt=36972
icnt_total_pkts_simt_to_mem=36972
LD_mem_lat_dist  0 0 0 0 0 0 0 0 0 0 0 0 0 0 0 0 0 0 0 0 0 0 0 0 0 0 0
ST_mem_lat_dist  0 0 0 0 0 0 0 0 0 0 0 0 0 0 0 0 0 0 0 0 0 0 0 0 0 0 0
----------------------------Interconnect-DETAILS--------------------------------
Req_Network_injected_packets_num = 36972
Req_Network_cycles = 4573390
Req_Network_injected_packets_per_cycle =       0.0081 
Req_Network_conflicts_per_cycle =       0.0037
Req_Network_conflicts_per_cycle_util =       0.9252
Req_Bank_Level_Parallism =       2.0430
Req_Network_in_buffer_full_per_cycle =       0.0000
Req_Network_in_buffer_avg_util =       0.0023
Req_Network_out_buffer_full_per_cycle =       0.0000
Req_Network_out_buffer_avg_util =       0.0001

Reply_Network_injected_packets_num = 36972
Reply_Network_cycles = 4573390
Reply_Network_injected_packets_per_cycle =        0.0081
Reply_Network_conflicts_per_cycle =        0.0221
Reply_Network_conflicts_per_cycle_util =       5.3838
Reply_Bank_Level_Parallism =       1.9716
Reply_Network_in_buffer_full_per_cycle =       0.0000
Reply_Network_in_buffer_avg_util =       0.0034
Reply_Network_out_buffer_full_per_cycle =       0.0000
Reply_Network_out_buffer_avg_util =       0.0001
----------------------------END-of-Interconnect-DETAILS-------------------------


gpgpu_simulation_time = 0 days, 3 hrs, 34 min, 12 sec (12852 sec)
gpgpu_simulation_rate = 64600 (inst/sec)
gpgpu_simulation_rate = 355 (cycle/sec)
gpgpu_silicon_slowdown = 3188732x
GPGPU-Sim: detected inactive GPU simulation thread
GPGPU-Sim: *** exit detected ***
