

        *** GPGPU-Sim Simulator Version 4.0.0  [build gpgpu-sim_git-commit-_modified_0.0] ***


GPGPU-Sim PTX: simulation mode 0 (can change with PTX_SIM_MODE_FUNC environment variable:
               1=functional simulation only, 0=detailed performance simulator)
GPGPU-Sim PTX: overriding embedded ptx with ptx file (PTX_SIM_USE_PTX_FILE is set)
GPGPU-Sim: Configuration options:

-save_embedded_ptx                      0 # saves ptx files embedded in binary as <n>.ptx
-keep                                   0 # keep intermediate files created by GPGPU-Sim when interfacing with external programs
-gpgpu_ptx_save_converted_ptxplus                    0 # Saved converted ptxplus to a file
-gpgpu_occupancy_sm_number                   70 # The SM number to pass to ptxas when getting register usage for computing GPU occupancy. This parameter is required in the config.
-ptx_opcode_latency_int      4,13,4,5,145,21 # Opcode latencies for integers <ADD,MAX,MUL,MAD,DIV,SHFL>Default 1,1,19,25,145,32
-ptx_opcode_latency_fp          4,13,4,5,39 # Opcode latencies for single precision floating points <ADD,MAX,MUL,MAD,DIV>Default 1,1,1,1,30
-ptx_opcode_latency_dp         8,19,8,8,330 # Opcode latencies for double precision floating points <ADD,MAX,MUL,MAD,DIV>Default 8,8,8,8,335
-ptx_opcode_latency_sfu                  100 # Opcode latencies for SFU instructionsDefault 8
-ptx_opcode_latency_tesnor                   64 # Opcode latencies for Tensor instructionsDefault 64
-ptx_opcode_initiation_int          2,2,2,2,8,4 # Opcode initiation intervals for integers <ADD,MAX,MUL,MAD,DIV,SHFL>Default 1,1,4,4,32,4
-ptx_opcode_initiation_fp            2,2,2,2,4 # Opcode initiation intervals for single precision floating points <ADD,MAX,MUL,MAD,DIV>Default 1,1,1,1,5
-ptx_opcode_initiation_dp          4,4,4,4,130 # Opcode initiation intervals for double precision floating points <ADD,MAX,MUL,MAD,DIV>Default 8,8,8,8,130
-ptx_opcode_initiation_sfu                    8 # Opcode initiation intervals for sfu instructionsDefault 8
-ptx_opcode_initiation_tensor                   64 # Opcode initiation intervals for tensor instructionsDefault 64
-cdp_latency         7200,8000,100,12000,1600 # CDP API latency <cudaStreamCreateWithFlags, cudaGetParameterBufferV2_init_perWarp, cudaGetParameterBufferV2_perKernel, cudaLaunchDeviceV2_init_perWarp, cudaLaunchDevicV2_perKernel>Default 7200,8000,100,12000,1600
-network_mode                           2 # Interconnection network mode
-inter_config_file                   mesh # Interconnection network config file
-icnt_in_buffer_limit                  512 # in_buffer_limit
-icnt_out_buffer_limit                  512 # out_buffer_limit
-icnt_subnets                           2 # subnets
-icnt_arbiter_algo                      1 # arbiter_algo
-icnt_verbose                           0 # inct_verbose
-icnt_grant_cycles                      1 # grant_cycles
-gpgpu_ptx_use_cuobjdump                    1 # Use cuobjdump to extract ptx and sass from binaries
-gpgpu_experimental_lib_support                    0 # Try to extract code from cuda libraries [Broken because of unknown cudaGetExportTable]
-checkpoint_option                      0 #  checkpointing flag (0 = no checkpoint)
-checkpoint_kernel                      1 #  checkpointing during execution of which kernel (1- 1st kernel)
-checkpoint_CTA                         0 #  checkpointing after # of CTA (< less than total CTA)
-resume_option                          0 #  resume flag (0 = no resume)
-resume_kernel                          0 #  Resume from which kernel (1= 1st kernel)
-resume_CTA                             0 #  resume from which CTA 
-checkpoint_CTA_t                       0 #  resume from which CTA 
-checkpoint_insn_Y                      0 #  resume from which CTA 
-gpgpu_ptx_convert_to_ptxplus                    0 # Convert SASS (native ISA) to ptxplus and run ptxplus
-gpgpu_ptx_force_max_capability                   70 # Force maximum compute capability
-gpgpu_ptx_inst_debug_to_file                    0 # Dump executed instructions' debug information to file
-gpgpu_ptx_inst_debug_file       inst_debug.txt # Executed instructions' debug output file
-gpgpu_ptx_inst_debug_thread_uid                    1 # Thread UID for executed instructions' debug output
-gpgpu_n_mem_for_l2wb_pcommit                   32 # number of memory modules (e.g. memory controllers) in gpu
-gpgpu_n_sub_partition_per_mchannel_for_l2wb_pcommit                    2 # number of memory subpartition in each memory module
-gpgpu_dl2_bsize_for_l2wb_pcommit                  128 # default 128 bytes
-gpgpu_simd_model                       1 # 1 = post-dominator
-gpgpu_shader_core_pipeline              2048:32 # shader core pipeline config, i.e., {<nthread>:<warpsize>}
-gpgpu_tex_cache:l1  N:4:128:256,L:R:m:N:L,T:512:8,128:2 # per-shader L1 texture cache  (READ-ONLY) config  {<nsets>:<bsize>:<assoc>,<rep>:<wr>:<alloc>:<wr_alloc>,<mshr>:<N>:<merge>,<mq>:<rf>}
-gpgpu_const_cache:l1 N:128:64:8,L:R:f:N:L,S:2:64,4 # per-shader L1 constant memory cache  (READ-ONLY) config  {<nsets>:<bsize>:<assoc>,<rep>:<wr>:<alloc>:<wr_alloc>,<mshr>:<N>:<merge>,<mq>} 
-gpgpu_cache:il1     N:64:128:16,L:R:f:N:L,S:2:48,4 # shader L1 instruction cache config  {<nsets>:<bsize>:<assoc>,<rep>:<wr>:<alloc>:<wr_alloc>,<mshr>:<N>:<merge>,<mq>} 
-gpgpu_cache:dl1     S:1:128:256,L:L:s:N:L,A:256:8,16:0,32 # per-shader L1 data cache config  {<nsets>:<bsize>:<assoc>,<rep>:<wr>:<alloc>:<wr_alloc>,<mshr>:<N>:<merge>,<mq> | none}
-gpgpu_l1_banks                         4 # The number of L1 cache banks
-gpgpu_l1_banks_byte_interleaving                   32 # l1 banks byte interleaving granularity
-gpgpu_l1_banks_hashing_function                    0 # l1 banks hashing function
-gpgpu_l1_latency                      20 # L1 Hit Latency
-gpgpu_smem_latency                    20 # smem Latency
-gpgpu_cache:dl1PrefL1                 none # per-shader L1 data cache config  {<nsets>:<bsize>:<assoc>,<rep>:<wr>:<alloc>:<wr_alloc>,<mshr>:<N>:<merge>,<mq> | none}
-gpgpu_cache:dl1PrefShared                 none # per-shader L1 data cache config  {<nsets>:<bsize>:<assoc>,<rep>:<wr>:<alloc>:<wr_alloc>,<mshr>:<N>:<merge>,<mq> | none}
-gpgpu_gmem_skip_L1D                    0 # global memory access skip L1D cache (implements -Xptxas -dlcm=cg, default=no skip)
-gpgpu_perfect_mem                      0 # enable perfect memory mode (no cache miss)
-n_regfile_gating_group                    4 # group of lanes that should be read/written together)
-gpgpu_clock_gated_reg_file                    0 # enable clock gated reg file for power calculations
-gpgpu_clock_gated_lanes                    0 # enable clock gated lanes for power calculations
-gpgpu_shader_registers                65536 # Number of registers per shader core. Limits number of concurrent CTAs. (default 8192)
-gpgpu_registers_per_block                65536 # Maximum number of registers per CTA. (default 8192)
-gpgpu_ignore_resources_limitation                    0 # gpgpu_ignore_resources_limitation (default 0)
-gpgpu_shader_cta                      32 # Maximum number of concurrent CTAs in shader (default 8)
-gpgpu_num_cta_barriers                   16 # Maximum number of named barriers per CTA (default 16)
-gpgpu_n_clusters                      80 # number of processing clusters
-gpgpu_n_cores_per_cluster                    1 # number of simd cores per cluster
-gpgpu_n_cluster_ejection_buffer_size                   32 # number of packets in ejection buffer
-gpgpu_n_ldst_response_buffer_size                    2 # number of response packets in ld/st unit ejection buffer
-gpgpu_shmem_per_block                65536 # Size of shared memory per thread block or CTA (default 48kB)
-gpgpu_shmem_size                   98304 # Size of shared memory per shader core (default 16kB)
-gpgpu_adaptive_cache_config            536870913 # adaptive_cache_config
-gpgpu_shmem_sizeDefault                98304 # Size of shared memory per shader core (default 16kB)
-gpgpu_shmem_size_PrefL1                16384 # Size of shared memory per shader core (default 16kB)
-gpgpu_shmem_size_PrefShared                16384 # Size of shared memory per shader core (default 16kB)
-gpgpu_shmem_num_banks                   32 # Number of banks in the shared memory in each shader core (default 16)
-gpgpu_shmem_limited_broadcast                    0 # Limit shared memory to do one broadcast per cycle (default on)
-gpgpu_shmem_warp_parts                    1 # Number of portions a warp is divided into for shared memory bank conflict check 
-gpgpu_mem_unit_ports                    1 # The number of memory transactions allowed per core cycle
-gpgpu_shmem_warp_parts                    1 # Number of portions a warp is divided into for shared memory bank conflict check 
-gpgpu_warpdistro_shader                   -1 # Specify which shader core to collect the warp size distribution from
-gpgpu_warp_issue_shader                    0 # Specify which shader core to collect the warp issue distribution from
-gpgpu_local_mem_map                    1 # Mapping from local memory space address to simulated GPU physical address space (default = enabled)
-gpgpu_num_reg_banks                   16 # Number of register banks (default = 8)
-gpgpu_reg_bank_use_warp_id                    0 # Use warp ID in mapping registers to banks (default = off)
-gpgpu_sub_core_model                    1 # Sub Core Volta/Pascal model (default = off)
-gpgpu_enable_specialized_operand_collector                    0 # enable_specialized_operand_collector
-gpgpu_operand_collector_num_units_sp                    4 # number of collector units (default = 4)
-gpgpu_operand_collector_num_units_dp                    0 # number of collector units (default = 0)
-gpgpu_operand_collector_num_units_sfu                    4 # number of collector units (default = 4)
-gpgpu_operand_collector_num_units_int                    0 # number of collector units (default = 0)
-gpgpu_operand_collector_num_units_tensor_core                    4 # number of collector units (default = 4)
-gpgpu_operand_collector_num_units_mem                    2 # number of collector units (default = 2)
-gpgpu_operand_collector_num_units_gen                    8 # number of collector units (default = 0)
-gpgpu_operand_collector_num_in_ports_sp                    1 # number of collector unit in ports (default = 1)
-gpgpu_operand_collector_num_in_ports_dp                    0 # number of collector unit in ports (default = 0)
-gpgpu_operand_collector_num_in_ports_sfu                    1 # number of collector unit in ports (default = 1)
-gpgpu_operand_collector_num_in_ports_int                    0 # number of collector unit in ports (default = 0)
-gpgpu_operand_collector_num_in_ports_tensor_core                    1 # number of collector unit in ports (default = 1)
-gpgpu_operand_collector_num_in_ports_mem                    1 # number of collector unit in ports (default = 1)
-gpgpu_operand_collector_num_in_ports_gen                    8 # number of collector unit in ports (default = 0)
-gpgpu_operand_collector_num_out_ports_sp                    1 # number of collector unit in ports (default = 1)
-gpgpu_operand_collector_num_out_ports_dp                    0 # number of collector unit in ports (default = 0)
-gpgpu_operand_collector_num_out_ports_sfu                    1 # number of collector unit in ports (default = 1)
-gpgpu_operand_collector_num_out_ports_int                    0 # number of collector unit in ports (default = 0)
-gpgpu_operand_collector_num_out_ports_tensor_core                    1 # number of collector unit in ports (default = 1)
-gpgpu_operand_collector_num_out_ports_mem                    1 # number of collector unit in ports (default = 1)
-gpgpu_operand_collector_num_out_ports_gen                    8 # number of collector unit in ports (default = 0)
-gpgpu_coalesce_arch                   60 # Coalescing arch (GT200 = 13, Fermi = 20)
-gpgpu_num_sched_per_core                    4 # Number of warp schedulers per core
-gpgpu_max_insn_issue_per_warp                    1 # Max number of instructions that can be issued per warp in one cycle by scheduler (either 1 or 2)
-gpgpu_dual_issue_diff_exec_units                    1 # should dual issue use two different execution unit resources (Default = 1)
-gpgpu_simt_core_sim_order                    1 # Select the simulation order of cores in a cluster (0=Fix, 1=Round-Robin)
-gpgpu_pipeline_widths 4,4,4,4,4,4,4,4,4,4,8,4,4 # Pipeline widths ID_OC_SP,ID_OC_DP,ID_OC_INT,ID_OC_SFU,ID_OC_MEM,OC_EX_SP,OC_EX_DP,OC_EX_INT,OC_EX_SFU,OC_EX_MEM,EX_WB,ID_OC_TENSOR_CORE,OC_EX_TENSOR_CORE
-gpgpu_tensor_core_avail                    1 # Tensor Core Available (default=0)
-gpgpu_num_sp_units                     4 # Number of SP units (default=1)
-gpgpu_num_dp_units                     4 # Number of DP units (default=0)
-gpgpu_num_int_units                    4 # Number of INT units (default=0)
-gpgpu_num_sfu_units                    4 # Number of SF units (default=1)
-gpgpu_num_tensor_core_units                    4 # Number of tensor_core units (default=1)
-gpgpu_num_mem_units                    1 # Number if ldst units (default=1) WARNING: not hooked up to anything
-gpgpu_scheduler                      gto # Scheduler configuration: < lrr | gto | two_level_active > If two_level_active:<num_active_warps>:<inner_prioritization>:<outer_prioritization>For complete list of prioritization values see shader.h enum scheduler_prioritization_typeDefault: gto
-gpgpu_concurrent_kernel_sm                    0 # Support concurrent kernels on a SM (default = disabled)
-gpgpu_perfect_inst_const_cache                    1 # perfect inst and const cache mode, so all inst and const hits in the cache(default = disabled)
-gpgpu_inst_fetch_throughput                    4 # the number of fetched intruction per warp each cycle
-gpgpu_reg_file_port_throughput                    2 # the number ports of the register file
-specialized_unit_1         0,4,4,4,4,BRA # specialized unit config {<enabled>,<num_units>:<latency>:<initiation>,<ID_OC_SPEC>:<OC_EX_SPEC>,<NAME>}
-specialized_unit_2         0,4,4,4,4,BRA # specialized unit config {<enabled>,<num_units>:<latency>:<initiation>,<ID_OC_SPEC>:<OC_EX_SPEC>,<NAME>}
-specialized_unit_3         0,4,4,4,4,BRA # specialized unit config {<enabled>,<num_units>:<latency>:<initiation>,<ID_OC_SPEC>:<OC_EX_SPEC>,<NAME>}
-specialized_unit_4         0,4,4,4,4,BRA # specialized unit config {<enabled>,<num_units>:<latency>:<initiation>,<ID_OC_SPEC>:<OC_EX_SPEC>,<NAME>}
-specialized_unit_5         0,4,4,4,4,BRA # specialized unit config {<enabled>,<num_units>:<latency>:<initiation>,<ID_OC_SPEC>:<OC_EX_SPEC>,<NAME>}
-specialized_unit_6         0,4,4,4,4,BRA # specialized unit config {<enabled>,<num_units>:<latency>:<initiation>,<ID_OC_SPEC>:<OC_EX_SPEC>,<NAME>}
-specialized_unit_7         0,4,4,4,4,BRA # specialized unit config {<enabled>,<num_units>:<latency>:<initiation>,<ID_OC_SPEC>:<OC_EX_SPEC>,<NAME>}
-specialized_unit_8         0,4,4,4,4,BRA # specialized unit config {<enabled>,<num_units>:<latency>:<initiation>,<ID_OC_SPEC>:<OC_EX_SPEC>,<NAME>}
-gpgpu_perf_sim_memcpy                    1 # Fill the L2 cache on memcpy
-gpgpu_simple_dram_model                    0 # simple_dram_model with fixed latency and BW
-gpgpu_dram_scheduler                    1 # 0 = fifo, 1 = FR-FCFS (defaul)
-gpgpu_dram_partition_queues          64:64:64:64 # i2$:$2d:d2$:$2i
-l2_ideal                               0 # Use a ideal L2 cache that always hit
-gpgpu_cache:dl2     S:32:128:24,L:B:m:L:P,A:192:4,32:0,32 # unified banked L2 data cache config  {<nsets>:<bsize>:<assoc>,<rep>:<wr>:<alloc>:<wr_alloc>,<mshr>:<N>:<merge>,<mq>}
-gpgpu_cache:dl2_texture_only                    0 # L2 cache used for texture only
-gpgpu_n_mem                           32 # number of memory modules (e.g. memory controllers) in gpu
-gpgpu_n_sub_partition_per_mchannel                    2 # number of memory subpartition in each memory module
-gpgpu_n_mem_per_ctrlr                    1 # number of memory chips per memory controller
-gpgpu_memlatency_stat                   14 # track and display latency statistics 0x2 enables MC, 0x4 enables queue logs
-gpgpu_frfcfs_dram_sched_queue_size                   64 # 0 = unlimited (default); # entries per chip
-gpgpu_dram_return_queue_size                  192 # 0 = unlimited (default); # entries per chip
-gpgpu_dram_buswidth                   16 # default = 4 bytes (8 bytes per cycle at DDR)
-gpgpu_dram_burst_length                    2 # Burst length of each DRAM request (default = 4 data bus cycle)
-dram_data_command_freq_ratio                    2 # Frequency ratio between DRAM data bus and command bus (default = 2 times, i.e. DDR)
-gpgpu_dram_timing_opt nbk=16:CCD=1:RRD=3:RCD=12:RAS=28:RP=12:RC=40: CL=12:WL=2:CDLR=3:WR=10:nbkgrp=4:CCDL=2:RTPL=3 # DRAM timing parameters = {nbk:tCCD:tRRD:tRCD:tRAS:tRP:tRC:CL:WL:tCDLR:tWR:nbkgrp:tCCDL:tRTPL}
-gpgpu_l2_rop_latency                  160 # ROP queue latency (default 85)
-dram_latency                         200 # DRAM latency (default 30)
-dram_write_latency                   600 # DRAM write latency (default 100)
-dram_dual_bus_interface                    1 # dual_bus_interface (default = 0) 
-dram_bnk_indexing_policy                    0 # dram_bnk_indexing_policy (0 = normal indexing, 1 = Xoring with the higher bits) (Default = 0)
-dram_bnkgrp_indexing_policy                    1 # dram_bnkgrp_indexing_policy (0 = take higher bits, 1 = take lower bits) (Default = 0)
-dram_seperate_write_queue_enable                    0 # Seperate_Write_Queue_Enable
-dram_write_queue_size             32:28:16 # Write_Queue_Size
-dram_elimnate_rw_turnaround                    0 # elimnate_rw_turnaround i.e set tWTR and tRTW = 0
-icnt_flit_size                        40 # icnt_flit_size
-gpgpu_mem_addr_mapping dramid@8;00000000.00000000.00000000.00000000.0000RRRR.RRRRRRRR.RBBBCCCB.CCCSSSSS # mapping memory address to dram model {dramid@<start bit>;<memory address map>}
-gpgpu_mem_addr_test                    0 # run sweep test to check address mapping for aliased address
-gpgpu_mem_address_mask                    1 # 0 = old addressing mask, 1 = new addressing mask, 2 = new add. mask + flipped bank sel and chip sel bits
-gpgpu_memory_partition_indexing                    0 # 0 = no indexing, 1 = bitwise xoring, 2 = IPoly, 3 = custom indexing
-gpuwattch_xml_file         gpuwattch.xml # GPUWattch XML file
-power_simulation_enabled                    0 # Turn on power simulator (1=On, 0=Off)
-power_per_cycle_dump                    0 # Dump detailed power output each cycle
-power_trace_enabled                    0 # produce a file for the power trace (1=On, 0=Off)
-power_trace_zlevel                     6 # Compression level of the power trace output log (0=no comp, 9=highest)
-steady_power_levels_enabled                    0 # produce a file for the steady power levels (1=On, 0=Off)
-steady_state_definition                  8:4 # allowed deviation:number of samples
-gpgpu_max_cycle                        0 # terminates gpu simulation early (0 = no limit)
-gpgpu_max_insn                         0 # terminates gpu simulation early (0 = no limit)
-gpgpu_max_cta                          0 # terminates gpu simulation early (0 = no limit)
-gpgpu_max_completed_cta                    0 # terminates gpu simulation early (0 = no limit)
-gpgpu_runtime_stat                   500 # display runtime statistics such as dram utilization {<freq>:<flag>}
-liveness_message_freq                    1 # Minimum number of seconds between simulation liveness messages (0 = always print)
-gpgpu_compute_capability_major                    7 # Major compute capability version number
-gpgpu_compute_capability_minor                    0 # Minor compute capability version number
-gpgpu_flush_l1_cache                    1 # Flush L1 cache at the end of each kernel call
-gpgpu_flush_l2_cache                    0 # Flush L2 cache at the end of each kernel call
-gpgpu_deadlock_detect                    1 # Stop the simulation at deadlock (1=on (default), 0=off)
-gpgpu_ptx_instruction_classification                    0 # if enabled will classify ptx instruction types per kernel (Max 255 kernels now)
-gpgpu_ptx_sim_mode                     0 # Select between Performance (default) or Functional simulation (1)
-gpgpu_clock_domains 1132.0:1132.0:1132.0:850.0 # Clock Domain Frequencies in MhZ {<Core Clock>:<ICNT Clock>:<L2 Clock>:<DRAM Clock>}
-gpgpu_max_concurrent_kernel                    8 # maximum kernels that can run concurrently on GPU
-gpgpu_cflog_interval                    0 # Interval between each snapshot in control flow logger
-visualizer_enabled               c24cb2b6ef1f9758a0dc39668006033d  /home/pli11/Desktop/re_test/ProgPow/ethash_calculate_dag_item/undo_c_clwb_pct+idem/main
Extracting PTX file and ptxas options    1: main.1.sm_70.ptx -arch=sm_70
      0 # Turn on visualizer output (1=On, 0=Off)
-visualizer_outputfile                 NULL # Specifies the output log file for visualizer
-visualizer_zlevel                      6 # Compression level of the visualizer output log (0=no comp, 9=highest)
-gpgpu_stack_size_limit                 1024 # GPU thread stack size
-gpgpu_heap_size_limit              8388608 # GPU malloc heap size 
-gpgpu_runtime_sync_depth_limit                    2 # GPU device runtime synchronize depth
-gpgpu_runtime_pending_launch_count_limit                 2048 # GPU device runtime pending launch count
-trace_enabled                          0 # Turn on traces
-trace_components                    none # comma seperated list of traces to enable. Complete list found in trace_streams.tup. Default none
-trace_sampling_core                    0 # The core which is printed using CORE_DPRINTF. Default 0
-trace_sampling_memory_partition                   -1 # The memory partition which is printed using MEMPART_DPRINTF. Default -1 (i.e. all)
-enable_ptx_file_line_stats                    1 # Turn on PTX source line statistic profiling. (1 = On)
-ptx_line_stats_filename gpgpu_inst_stats.txt # Output file for PTX source line statistics.
-gpgpu_kernel_launch_latency                 5000 # Kernel launch latency in cycles. Default: 0
-gpgpu_cdp_enabled                      0 # Turn on CDP
-gpgpu_TB_launch_latency                    0 # thread block launch latency in cycles. Default: 0
DRAM Timing Options:
nbk                                    16 # number of banks
CCD                                     1 # column to column delay
RRD                                     3 # minimal delay between activation of rows in different banks
RCD                                    12 # row to column delay
RAS                                    28 # time needed to activate row
RP                                     12 # time needed to precharge (deactivate) row
RC                                     40 # row cycle time
CDLR                                    3 # switching from write to read (changes tWTR)
WR                                     10 # last data-in to row precharge
CL                                     12 # CAS latency
WL                                      2 # Write latency
nbkgrp                                  4 # number of bank groups
CCDL                                    2 # column to column delay between accesses to different bank groups
RTPL                                    3 # read to precharge delay between accesses to different bank groups
Total number of memory sub partition = 64
addr_dec_mask[CHIP]  = 0000000000001f00 	high:13 low:8
addr_dec_mask[BK]    = 00000000000e2000 	high:20 low:13
addr_dec_mask[ROW]   = 00000001fff00000 	high:33 low:20
addr_dec_mask[COL]   = 000000000001c0ff 	high:17 low:0
addr_dec_mask[BURST] = 000000000000001f 	high:5 low:0
sub_partition_id_mask = 0000000000002000
GPGPU-Sim uArch: clock freqs: 1132000000.000000:1132000000.000000:1132000000.000000:850000000.000000
GPGPU-Sim uArch: clock periods: 0.00000000088339222615:0.00000000088339222615:0.00000000088339222615:0.00000000117647058824
*** Initializing Memory Statistics ***
GPGPU-Sim uArch: performance model initialization complete.
self exe links to: /home/pli11/Desktop/re_test/ProgPow/ethash_calculate_dag_item/undo_c_clwb_pct+idem/main
self exe links to: /home/pli11/Desktop/re_test/ProgPow/ethash_calculate_dag_item/undo_c_clwb_pct+idem/main
10.1
GPGPU-Sim PTX: __cudaRegisterFatBinary, fat_cubin_handle = 1, filename=default
self exe links to: /home/pli11/Desktop/re_test/ProgPow/ethash_calculate_dag_item/undo_c_clwb_pct+idem/main
Running md5sum using "md5sum /home/pli11/Desktop/re_test/ProgPow/ethash_calculate_dag_item/undo_c_clwb_pct+idem/main "
self exe links to: /home/pli11/Desktop/re_test/ProgPow/ethash_calculate_dag_item/undo_c_clwb_pct+idem/main
Extracting specific PTX file named main.1.sm_70.ptx 
GPGPU-Sim PTX: __cudaRegisterFunction _Z25ethash_calculate_dag_itemjP8hash64_tmS0_j : hostFun 0x0x4123e6, fat_cubin_handle = 1
GPGPU-Sim PTX: Parsing main.1.sm_70.ptx
GPGPU-Sim PTX: allocating constant region for "keccakf_rndc" from 0x100 to 0x1c0 (global memory space) 1
GPGPU-Sim PTX: allocating global region for "NVM_log" from 0x200 to 0x4000200 (global memory space)
GPGPU-Sim PTX: allocating global region for "NVM_flag" from 0x4000200 to 0x4400200 (global memory space)
GPGPU-Sim PTX: allocating stack frame region for .local "__local_depot0" from 0x0 to 0x40
GPGPU-Sim PTX: instruction assembly for function '_Z25ethash_calculate_dag_itemjP8hash64_tmS0_j'...   done.
GPGPU-Sim PTX: finished parsing EMBEDDED .ptx file main.1.sm_70.ptx
GPGPU-Sim PTX: loading globals with explicit initializers... 
GPGPU-Sim PTX: finished loading globals (0 bytes total).
GPGPU-Sim PTX: loading constants with explicit initializers...  done.
GPGPU-Sim PTX: Loading PTXInfo from main.1.sm_70.ptx
GPGPU-Sim PTX: Binary info : gmem=71303168, cmem=192
GPGPU-Sim PTX: Kernel '_Z25ethash_calculate_dag_itemjP8hash64_tmS0_j' : regs=80, lmem=0, smem=0, cmem=388
GPGPU-Sim PTX: __cudaRegisterVar: hostVar = 0x41c4c0; deviceAddress = keccakf_rndc; deviceName = keccakf_rndc
GPGPU-Sim PTX: __cudaRegisterVar: Registering const memory space of 192 bytes
GPGPU-Sim PTX registering constant keccakf_rndc (192 bytes) to name mapping
GPGPU-Sim PTX: __cudaRegisterVar: hostVar = 0x6bf9c0; deviceAddress = NVM_log; deviceName = NVM_log
GPGPU-Sim PTX: __cudaRegisterVar: Registering const memory space of 67108864 bytes
GPGPU-Sim PTX registering global NVM_log hostVar to name mapping
GPGPU-Sim PTX: __cudaRegisterVar: hostVar = 0x46bf9c0; deviceAddress = NVM_flag; deviceName = NVM_flag
GPGPU-Sim PTX: __cudaRegisterVar: Registering const memory space of 4194304 bytes
GPGPU-Sim PTX registering global NVM_flag hostVar to name mapping
Set Device to current
Resetting device
Allocating light with size: 16907456
Generating mining buffers
GPGPU-Sim PTX: cudaStreamCreate
GPGPU-Sim PTX: cudaStreamCreate
Generating DAG for GPU #0 with dagBytes: 1082130304 gridSize: 4
fullRuns=16512
GPGPU-Sim PTX: Setting up arguments for 4 bytes starting at 0x7ffd367e1a1c..
GPGPU-Sim PTX: Setting up arguments for 8 bytes starting at 0x7ffd367e1a10..
GPGPU-Sim PTX: Setting up arguments for 8 bytes starting at 0x7ffd367e1a08..
GPGPU-Sim PTX: Setting up arguments for 8 bytes starting at 0x7ffd367e1a00..
GPGPU-Sim PTX: Setting up arguments for 4 bytes starting at 0x7ffd367e1a18..

GPGPU-Sim PTX: cudaLaunch for 0x0x4123e6 (mode=performance simulation) on stream 1
GPGPU-Sim PTX: finding reconvergence points for '_Z25ethash_calculate_dag_itemjP8hash64_tmS0_j'...
GPGPU-Sim PTX: Finding dominators for '_Z25ethash_calculate_dag_itemjP8hash64_tmS0_j'...
GPGPU-Sim PTX: Finding immediate dominators for '_Z25ethash_calculate_dag_itemjP8hash64_tmS0_j'...
GPGPU-Sim PTX: Finding postdominators for '_Z25ethash_calculate_dag_itemjP8hash64_tmS0_j'...
GPGPU-Sim PTX: Finding immediate postdominators for '_Z25ethash_calculate_dag_itemjP8hash64_tmS0_j'...
GPGPU-Sim PTX: pre-decoding instructions for '_Z25ethash_calculate_dag_itemjP8hash64_tmS0_j'...
GPGPU-Sim PTX: reconvergence points for _Z25ethash_calculate_dag_itemjP8hash64_tmS0_j...
GPGPU-Sim PTX:  1 (potential) branch divergence @  PC=0x088 (main.1.sm_70.ptx:52) @%p4098 bra BB0_2580;
GPGPU-Sim PTX:    immediate post dominator      @  PC=0x2bc78 (main.1.sm_70.ptx:26777) ret;
GPGPU-Sim PTX:  2 (potential) branch divergence @  PC=0x0d8 (main.1.sm_70.ptx:63) @%p4099 bra BB0_3;
GPGPU-Sim PTX:    immediate post dominator      @  PC=0x178 (main.1.sm_70.ptx:96) cvt.u64.u32%rd3, %r5986;
GPGPU-Sim PTX:  3 (potential) branch divergence @  PC=0x190 (main.1.sm_70.ptx:99) @%p4100 bra BB0_5;
GPGPU-Sim PTX:    immediate post dominator      @  PC=0x1c8 (main.1.sm_70.ptx:111) shl.b64 %rd6302, %rd7676, 6;
GPGPU-Sim PTX:  4 (potential) branch divergence @  PC=0x1a0 (main.1.sm_70.ptx:102) bra.uni BB0_6;
GPGPU-Sim PTX:    immediate post dominator      @  PC=0x1c8 (main.1.sm_70.ptx:111) shl.b64 %rd6302, %rd7676, 6;
GPGPU-Sim PTX:  5 (potential) branch divergence @  PC=0xb58 (main.1.sm_70.ptx:622) @%p4101 bra BB0_7;
GPGPU-Sim PTX:    immediate post dominator      @  PC=0xb60 (main.1.sm_70.ptx:624) mov.u32 %r24731, %tid.x;
GPGPU-Sim PTX:  6 (potential) branch divergence @  PC=0xc10 (main.1.sm_70.ptx:648) @%p4103 bra BB0_11;
GPGPU-Sim PTX:    immediate post dominator      @  PC=0xc78 (main.1.sm_70.ptx:664) shfl.sync.idx.b32 %r17|%p5, %r6078, %r6045, %r6075, %r6076;
GPGPU-Sim PTX:  7 (potential) branch divergence @  PC=0xc98 (main.1.sm_70.ptx:668) @%p4103 bra BB0_13;
GPGPU-Sim PTX:    immediate post dominator      @  PC=0xd00 (main.1.sm_70.ptx:684) shfl.sync.idx.b32 %r21|%p9, %r6078, %r6055, %r6075, %r6076;
GPGPU-Sim PTX:  8 (potential) branch divergence @  PC=0xd20 (main.1.sm_70.ptx:688) @%p4103 bra BB0_15;
GPGPU-Sim PTX:    immediate post dominator      @  PC=0xd88 (main.1.sm_70.ptx:704) shfl.sync.idx.b32 %r25|%p13, %r6078, %r6046, %r6075, %r6076;
GPGPU-Sim PTX:  9 (potential) branch divergence @  PC=0xda8 (main.1.sm_70.ptx:708) @%p4103 bra BB0_17;
GPGPU-Sim PTX:    immediate post dominator      @  PC=0xe10 (main.1.sm_70.ptx:724) add.s32 %r24764, %r24764, 1;
GPGPU-Sim PTX: 10 (potential) branch divergence @  PC=0xe20 (main.1.sm_70.ptx:726) @%p4107 bra BB0_9;
GPGPU-Sim PTX:    immediate post dominator      @  PC=0xe28 (main.1.sm_70.ptx:728) xor.b32 %r6141, %r6037, 1;
GPGPU-Sim PTX: 11 (potential) branch divergence @  PC=0xeb0 (main.1.sm_70.ptx:747) @%p4109 bra BB0_21;
GPGPU-Sim PTX:    immediate post dominator      @  PC=0xf18 (main.1.sm_70.ptx:763) shfl.sync.idx.b32 %r40|%p21, %r6150, %r6045, %r6075, %r6076;
GPGPU-Sim PTX: 12 (potential) branch divergence @  PC=0xf38 (main.1.sm_70.ptx:767) @%p4109 bra BB0_23;
GPGPU-Sim PTX:    immediate post dominator      @  PC=0xfa0 (main.1.sm_70.ptx:783) shfl.sync.idx.b32 %r44|%p25, %r6150, %r6055, %r6075, %r6076;
GPGPU-Sim PTX: 13 (potential) branch divergence @  PC=0xfc0 (main.1.sm_70.ptx:787) @%p4109 bra BB0_25;
GPGPU-Sim PTX:    immediate post dominator      @  PC=0x1028 (main.1.sm_70.ptx:803) shfl.sync.idx.b32 %r48|%p29, %r6150, %r6046, %r6075, %r6076;
GPGPU-Sim PTX: 14 (potential) branch divergence @  PC=0x1048 (main.1.sm_70.ptx:807) @%p4109 bra BB0_27;
GPGPU-Sim PTX:    immediate post dominator      @  PC=0x10b0 (main.1.sm_70.ptx:823) add.s32 %r24765, %r24765, 1;
GPGPU-Sim PTX: 15 (potential) branch divergence @  PC=0x10c0 (main.1.sm_70.ptx:825) @%p4113 bra BB0_19;
GPGPU-Sim PTX:    immediate post dominator      @  PC=0x10c8 (main.1.sm_70.ptx:827) xor.b32 %r6213, %r6037, 2;
GPGPU-Sim PTX: 16 (potential) branch divergence @  PC=0x1150 (main.1.sm_70.ptx:846) @%p4115 bra BB0_31;
GPGPU-Sim PTX:    immediate post dominator      @  PC=0x11b8 (main.1.sm_70.ptx:862) shfl.sync.idx.b32 %r63|%p37, %r6222, %r6045, %r6075, %r6076;
GPGPU-Sim PTX: 17 (potential) branch divergence @  PC=0x11d8 (main.1.sm_70.ptx:866) @%p4115 bra BB0_33;
GPGPU-Sim PTX:    immediate post dominator      @  PC=0x1240 (main.1.sm_70.ptx:882) shfl.sync.idx.b32 %r67|%p41, %r6222, %r6055, %r6075, %r6076;
GPGPU-Sim PTX: 18 (potential) branch divergence @  PC=0x1260 (main.1.sm_70.ptx:886) @%p4115 bra BB0_35;
GPGPU-Sim PTX:    immediate post dominator      @  PC=0x12c8 (main.1.sm_70.ptx:902) shfl.sync.idx.b32 %r71|%p45, %r6222, %r6046, %r6075, %r6076;
GPGPU-Sim PTX: 19 (potential) branch divergence @  PC=0x12e8 (main.1.sm_70.ptx:906) @%p4115 bra BB0_37;
GPGPU-Sim PTX:    immediate post dominator      @  PC=0x1350 (main.1.sm_70.ptx:922) add.s32 %r24766, %r24766, 1;
GPGPU-Sim PTX: 20 (potential) branch divergence @  PC=0x1360 (main.1.sm_70.ptx:924) @%p4119 bra BB0_29;
GPGPU-Sim PTX:    immediate post dominator      @  PC=0x1368 (main.1.sm_70.ptx:926) xor.b32 %r6285, %r6037, 3;
GPGPU-Sim PTX: 21 (potential) branch divergence @  PC=0x13f0 (main.1.sm_70.ptx:945) @%p4121 bra BB0_41;
GPGPU-Sim PTX:    immediate post dominator      @  PC=0x1458 (main.1.sm_70.ptx:961) shfl.sync.idx.b32 %r86|%p53, %r6294, %r6045, %r6075, %r6076;
GPGPU-Sim PTX: 22 (potential) branch divergence @  PC=0x1478 (main.1.sm_70.ptx:965) @%p4121 bra BB0_43;
GPGPU-Sim PTX:    immediate post dominator      @  PC=0x14e0 (main.1.sm_70.ptx:981) shfl.sync.idx.b32 %r90|%p57, %r6294, %r6055, %r6075, %r6076;
GPGPU-Sim PTX: 23 (potential) branch divergence @  PC=0x1500 (main.1.sm_70.ptx:985) @%p4121 bra BB0_45;
GPGPU-Sim PTX:    immediate post dominator      @  PC=0x1568 (main.1.sm_70.ptx:1001) shfl.sync.idx.b32 %r94|%p61, %r6294, %r6046, %r6075, %r6076;
GPGPU-Sim PTX: 24 (potential) branch divergence @  PC=0x1588 (main.1.sm_70.ptx:1005) @%p4121 bra BB0_47;
GPGPU-Sim PTX:    immediate post dominator      @  PC=0x15f0 (main.1.sm_70.ptx:1021) add.s32 %r24767, %r24767, 1;
GPGPU-Sim PTX: 25 (potential) branch divergence @  PC=0x1600 (main.1.sm_70.ptx:1023) @%p4125 bra BB0_39;
GPGPU-Sim PTX:    immediate post dominator      @  PC=0x1608 (main.1.sm_70.ptx:1025) xor.b32 %r6357, %r6037, 4;
GPGPU-Sim PTX: 26 (potential) branch divergence @  PC=0x1690 (main.1.sm_70.ptx:1044) @%p4127 bra BB0_51;
GPGPU-Sim PTX:    immediate post dominator      @  PC=0x16f8 (main.1.sm_70.ptx:1060) shfl.sync.idx.b32 %r109|%p69, %r6366, %r6045, %r6075, %r6076;
GPGPU-Sim PTX: 27 (potential) branch divergence @  PC=0x1718 (main.1.sm_70.ptx:1064) @%p4127 bra BB0_53;
GPGPU-Sim PTX:    immediate post dominator      @  PC=0x1780 (main.1.sm_70.ptx:1080) shfl.sync.idx.b32 %r113|%p73, %r6366, %r6055, %r6075, %r6076;
GPGPU-Sim PTX: 28 (potential) branch divergence @  PC=0x17a0 (main.1.sm_70.ptx:1084) @%p4127 bra BB0_55;
GPGPU-Sim PTX:    immediate post dominator      @  PC=0x1808 (main.1.sm_70.ptx:1100) shfl.sync.idx.b32 %r117|%p77, %r6366, %r6046, %r6075, %r6076;
GPGPU-Sim PTX: 29 (potential) branch divergence @  PC=0x1828 (main.1.sm_70.ptx:1104) @%p4127 bra BB0_57;
GPGPU-Sim PTX:    immediate post dominator      @  PC=0x1890 (main.1.sm_70.ptx:1120) add.s32 %r24768, %r24768, 1;
GPGPU-Sim PTX: 30 (potential) branch divergence @  PC=0x18a0 (main.1.sm_70.ptx:1122) @%p4131 bra BB0_49;
GPGPU-Sim PTX:    immediate post dominator      @  PC=0x18a8 (main.1.sm_70.ptx:1124) xor.b32 %r6429, %r6037, 5;
GPGPU-Sim PTX: 31 (potential) branch divergence @  PC=0x1930 (main.1.sm_70.ptx:1143) @%p4133 bra BB0_61;
GPGPU-Sim PTX:    immediate post dominator      @  PC=0x1998 (main.1.sm_70.ptx:1159) shfl.sync.idx.b32 %r132|%p85, %r6438, %r6045, %r6075, %r6076;
GPGPU-Sim PTX: 32 (potential) branch divergence @  PC=0x19b8 (main.1.sm_70.ptx:1163) @%p4133 bra BB0_63;
GPGPU-Sim PTX:    immediate post dominator      @  PC=0x1a20 (main.1.sm_70.ptx:1179) shfl.sync.idx.b32 %r136|%p89, %r6438, %r6055, %r6075, %r6076;
GPGPU-Sim PTX: 33 (potential) branch divergence @  PC=0x1a40 (main.1.sm_70.ptx:1183) @%p4133 bra BB0_65;
GPGPU-Sim PTX:    immediate post dominator      @  PC=0x1aa8 (main.1.sm_70.ptx:1199) shfl.sync.idx.b32 %r140|%p93, %r6438, %r6046, %r6075, %r6076;
GPGPU-Sim PTX: 34 (potential) branch divergence @  PC=0x1ac8 (main.1.sm_70.ptx:1203) @%p4133 bra BB0_67;
GPGPU-Sim PTX:    immediate post dominator      @  PC=0x1b30 (main.1.sm_70.ptx:1219) add.s32 %r24769, %r24769, 1;
GPGPU-Sim PTX: 35 (potential) branch divergence @  PC=0x1b40 (main.1.sm_70.ptx:1221) @%p4137 bra BB0_59;
GPGPU-Sim PTX:    immediate post dominator      @  PC=0x1b48 (main.1.sm_70.ptx:1223) xor.b32 %r6501, %r6037, 6;
GPGPU-Sim PTX: 36 (potential) branch divergence @  PC=0x1bd0 (main.1.sm_70.ptx:1242) @%p4139 bra BB0_71;
GPGPU-Sim PTX:    immediate post dominator      @  PC=0x1c38 (main.1.sm_70.ptx:1258) shfl.sync.idx.b32 %r155|%p101, %r6510, %r6045, %r6075, %r6076;
GPGPU-Sim PTX: 37 (potential) branch divergence @  PC=0x1c58 (main.1.sm_70.ptx:1262) @%p4139 bra BB0_73;
GPGPU-Sim PTX:    immediate post dominator      @  PC=0x1cc0 (main.1.sm_70.ptx:1278) shfl.sync.idx.b32 %r159|%p105, %r6510, %r6055, %r6075, %r6076;
GPGPU-Sim PTX: 38 (potential) branch divergence @  PC=0x1ce0 (main.1.sm_70.ptx:1282) @%p4139 bra BB0_75;
GPGPU-Sim PTX:    immediate post dominator      @  PC=0x1d48 (main.1.sm_70.ptx:1298) shfl.sync.idx.b32 %r163|%p109, %r6510, %r6046, %r6075, %r6076;
GPGPU-Sim PTX: 39 (potential) branch divergence @  PC=0x1d68 (main.1.sm_70.ptx:1302) @%p4139 bra BB0_77;
GPGPU-Sim PTX:    immediate post dominator      @  PC=0x1dd0 (main.1.sm_70.ptx:1318) add.s32 %r24770, %r24770, 1;
GPGPU-Sim PTX: 40 (potential) branch divergence @  PC=0x1de0 (main.1.sm_70.ptx:1320) @%p4143 bra BB0_69;
GPGPU-Sim PTX:    immediate post dominator      @  PC=0x1de8 (main.1.sm_70.ptx:1322) xor.b32 %r6573, %r6037, 7;
GPGPU-Sim PTX: 41 (potential) branch divergence @  PC=0x1e70 (main.1.sm_70.ptx:1341) @%p4145 bra BB0_81;
GPGPU-Sim PTX:    immediate post dominator      @  PC=0x1ed8 (main.1.sm_70.ptx:1357) shfl.sync.idx.b32 %r178|%p117, %r6582, %r6045, %r6075, %r6076;
GPGPU-Sim PTX: 42 (potential) branch divergence @  PC=0x1ef8 (main.1.sm_70.ptx:1361) @%p4145 bra BB0_83;
GPGPU-Sim PTX:    immediate post dominator      @  PC=0x1f60 (main.1.sm_70.ptx:1377) shfl.sync.idx.b32 %r182|%p121, %r6582, %r6055, %r6075, %r6076;
GPGPU-Sim PTX: 43 (potential) branch divergence @  PC=0x1f80 (main.1.sm_70.ptx:1381) @%p4145 bra BB0_85;
GPGPU-Sim PTX:    immediate post dominator      @  PC=0x1fe8 (main.1.sm_70.ptx:1397) shfl.sync.idx.b32 %r186|%p125, %r6582, %r6046, %r6075, %r6076;
GPGPU-Sim PTX: 44 (potential) branch divergence @  PC=0x2008 (main.1.sm_70.ptx:1401) @%p4145 bra BB0_87;
GPGPU-Sim PTX:    immediate post dominator      @  PC=0x2070 (main.1.sm_70.ptx:1417) add.s32 %r24771, %r24771, 1;
GPGPU-Sim PTX: 45 (potential) branch divergence @  PC=0x2080 (main.1.sm_70.ptx:1419) @%p4149 bra BB0_79;
GPGPU-Sim PTX:    immediate post dominator      @  PC=0x2088 (main.1.sm_70.ptx:1421) xor.b32 %r6645, %r6037, 8;
GPGPU-Sim PTX: 46 (potential) branch divergence @  PC=0x2110 (main.1.sm_70.ptx:1440) @%p4151 bra BB0_91;
GPGPU-Sim PTX:    immediate post dominator      @  PC=0x2178 (main.1.sm_70.ptx:1456) shfl.sync.idx.b32 %r201|%p133, %r6654, %r6045, %r6075, %r6076;
GPGPU-Sim PTX: 47 (potential) branch divergence @  PC=0x2198 (main.1.sm_70.ptx:1460) @%p4151 bra BB0_93;
GPGPU-Sim PTX:    immediate post dominator      @  PC=0x2200 (main.1.sm_70.ptx:1476) shfl.sync.idx.b32 %r205|%p137, %r6654, %r6055, %r6075, %r6076;
GPGPU-Sim PTX: 48 (potential) branch divergence @  PC=0x2220 (main.1.sm_70.ptx:1480) @%p4151 bra BB0_95;
GPGPU-Sim PTX:    immediate post dominator      @  PC=0x2288 (main.1.sm_70.ptx:1496) shfl.sync.idx.b32 %r209|%p141, %r6654, %r6046, %r6075, %r6076;
GPGPU-Sim PTX: 49 (potential) branch divergence @  PC=0x22a8 (main.1.sm_70.ptx:1500) @%p4151 bra BB0_97;
GPGPU-Sim PTX:    immediate post dominator      @  PC=0x2310 (main.1.sm_70.ptx:1516) add.s32 %r24772, %r24772, 1;
GPGPU-Sim PTX: 50 (potential) branch divergence @  PC=0x2320 (main.1.sm_70.ptx:1518) @%p4155 bra BB0_89;
GPGPU-Sim PTX:    immediate post dominator      @  PC=0x2328 (main.1.sm_70.ptx:1520) xor.b32 %r6717, %r6037, 9;
GPGPU-Sim PTX: 51 (potential) branch divergence @  PC=0x23b0 (main.1.sm_70.ptx:1539) @%p4157 bra BB0_101;
GPGPU-Sim PTX:    immediate post dominator      @  PC=0x2418 (main.1.sm_70.ptx:1555) shfl.sync.idx.b32 %r224|%p149, %r6726, %r6045, %r6075, %r6076;
GPGPU-Sim PTX: 52 (potential) branch divergence @  PC=0x2438 (main.1.sm_70.ptx:1559) @%p4157 bra BB0_103;
GPGPU-Sim PTX:    immediate post dominator      @  PC=0x24a0 (main.1.sm_70.ptx:1575) shfl.sync.idx.b32 %r228|%p153, %r6726, %r6055, %r6075, %r6076;
GPGPU-Sim PTX: 53 (potential) branch divergence @  PC=0x24c0 (main.1.sm_70.ptx:1579) @%p4157 bra BB0_105;
GPGPU-Sim PTX:    immediate post dominator      @  PC=0x2528 (main.1.sm_70.ptx:1595) shfl.sync.idx.b32 %r232|%p157, %r6726, %r6046, %r6075, %r6076;
GPGPU-Sim PTX: 54 (potential) branch divergence @  PC=0x2548 (main.1.sm_70.ptx:1599) @%p4157 bra BB0_107;
GPGPU-Sim PTX:    immediate post dominator      @  PC=0x25b0 (main.1.sm_70.ptx:1615) add.s32 %r24773, %r24773, 1;
GPGPU-Sim PTX: 55 (potential) branch divergence @  PC=0x25c0 (main.1.sm_70.ptx:1617) @%p4161 bra BB0_99;
GPGPU-Sim PTX:    immediate post dominator      @  PC=0x25c8 (main.1.sm_70.ptx:1619) xor.b32 %r6789, %r6037, 10;
GPGPU-Sim PTX: 56 (potential) branch divergence @  PC=0x2650 (main.1.sm_70.ptx:1638) @%p4163 bra BB0_111;
GPGPU-Sim PTX:    immediate post dominator      @  PC=0x26b8 (main.1.sm_70.ptx:1654) shfl.sync.idx.b32 %r247|%p165, %r6798, %r6045, %r6075, %r6076;
GPGPU-Sim PTX: 57 (potential) branch divergence @  PC=0x26d8 (main.1.sm_70.ptx:1658) @%p4163 bra BB0_113;
GPGPU-Sim PTX:    immediate post dominator      @  PC=0x2740 (main.1.sm_70.ptx:1674) shfl.sync.idx.b32 %r251|%p169, %r6798, %r6055, %r6075, %r6076;
GPGPU-Sim PTX: 58 (potential) branch divergence @  PC=0x2760 (main.1.sm_70.ptx:1678) @%p4163 bra BB0_115;
GPGPU-Sim PTX:    immediate post dominator      @  PC=0x27c8 (main.1.sm_70.ptx:1694) shfl.sync.idx.b32 %r255|%p173, %r6798, %r6046, %r6075, %r6076;
GPGPU-Sim PTX: 59 (potential) branch divergence @  PC=0x27e8 (main.1.sm_70.ptx:1698) @%p4163 bra BB0_117;
GPGPU-Sim PTX:    immediate post dominator      @  PC=0x2850 (main.1.sm_70.ptx:1714) add.s32 %r24774, %r24774, 1;
GPGPU-Sim PTX: 60 (potential) branch divergence @  PC=0x2860 (main.1.sm_70.ptx:1716) @%p4167 bra BB0_109;
GPGPU-Sim PTX:    immediate post dominator      @  PC=0x2868 (main.1.sm_70.ptx:1718) xor.b32 %r6861, %r6037, 11;
GPGPU-Sim PTX: 61 (potential) branch divergence @  PC=0x28f0 (main.1.sm_70.ptx:1737) @%p4169 bra BB0_121;
GPGPU-Sim PTX:    immediate post dominator      @  PC=0x2958 (main.1.sm_70.ptx:1753) shfl.sync.idx.b32 %r270|%p181, %r6870, %r6045, %r6075, %r6076;
GPGPU-Sim PTX: 62 (potential) branch divergence @  PC=0x2978 (main.1.sm_70.ptx:1757) @%p4169 bra BB0_123;
GPGPU-Sim PTX:    immediate post dominator      @  PC=0x29e0 (main.1.sm_70.ptx:1773) shfl.sync.idx.b32 %r274|%p185, %r6870, %r6055, %r6075, %r6076;
GPGPU-Sim PTX: 63 (potential) branch divergence @  PC=0x2a00 (main.1.sm_70.ptx:1777) @%p4169 bra BB0_125;
GPGPU-Sim PTX:    immediate post dominator      @  PC=0x2a68 (main.1.sm_70.ptx:1793) shfl.sync.idx.b32 %r278|%p189, %r6870, %r6046, %r6075, %r6076;
GPGPU-Sim PTX: 64 (potential) branch divergence @  PC=0x2a88 (main.1.sm_70.ptx:1797) @%p4169 bra BB0_127;
GPGPU-Sim PTX:    immediate post dominator      @  PC=0x2af0 (main.1.sm_70.ptx:1813) add.s32 %r24775, %r24775, 1;
GPGPU-Sim PTX: 65 (potential) branch divergence @  PC=0x2b00 (main.1.sm_70.ptx:1815) @%p4173 bra BB0_119;
GPGPU-Sim PTX:    immediate post dominator      @  PC=0x2b08 (main.1.sm_70.ptx:1817) xor.b32 %r6933, %r6037, 12;
GPGPU-Sim PTX: 66 (potential) branch divergence @  PC=0x2b90 (main.1.sm_70.ptx:1836) @%p4175 bra BB0_131;
GPGPU-Sim PTX:    immediate post dominator      @  PC=0x2bf8 (main.1.sm_70.ptx:1852) shfl.sync.idx.b32 %r293|%p197, %r6942, %r6045, %r6075, %r6076;
GPGPU-Sim PTX: 67 (potential) branch divergence @  PC=0x2c18 (main.1.sm_70.ptx:1856) @%p4175 bra BB0_133;
GPGPU-Sim PTX:    immediate post dominator      @  PC=0x2c80 (main.1.sm_70.ptx:1872) shfl.sync.idx.b32 %r297|%p201, %r6942, %r6055, %r6075, %r6076;
GPGPU-Sim PTX: 68 (potential) branch divergence @  PC=0x2ca0 (main.1.sm_70.ptx:1876) @%p4175 bra BB0_135;
GPGPU-Sim PTX:    immediate post dominator      @  PC=0x2d08 (main.1.sm_70.ptx:1892) shfl.sync.idx.b32 %r301|%p205, %r6942, %r6046, %r6075, %r6076;
GPGPU-Sim PTX: 69 (potential) branch divergence @  PC=0x2d28 (main.1.sm_70.ptx:1896) @%p4175 bra BB0_137;
GPGPU-Sim PTX:    immediate post dominator      @  PC=0x2d90 (main.1.sm_70.ptx:1912) add.s32 %r24776, %r24776, 1;
GPGPU-Sim PTX: 70 (potential) branch divergence @  PC=0x2da0 (main.1.sm_70.ptx:1914) @%p4179 bra BB0_129;
GPGPU-Sim PTX:    immediate post dominator      @  PC=0x2da8 (main.1.sm_70.ptx:1916) xor.b32 %r7005, %r6037, 13;
GPGPU-Sim PTX: 71 (potential) branch divergence @  PC=0x2e30 (main.1.sm_70.ptx:1935) @%p4181 bra BB0_141;
GPGPU-Sim PTX:    immediate post dominator      @  PC=0x2e98 (main.1.sm_70.ptx:1951) shfl.sync.idx.b32 %r316|%p213, %r7014, %r6045, %r6075, %r6076;
GPGPU-Sim PTX: 72 (potential) branch divergence @  PC=0x2eb8 (main.1.sm_70.ptx:1955) @%p4181 bra BB0_143;
GPGPU-Sim PTX:    immediate post dominator      @  PC=0x2f20 (main.1.sm_70.ptx:1971) shfl.sync.idx.b32 %r320|%p217, %r7014, %r6055, %r6075, %r6076;
GPGPU-Sim PTX: 73 (potential) branch divergence @  PC=0x2f40 (main.1.sm_70.ptx:1975) @%p4181 bra BB0_145;
GPGPU-Sim PTX:    immediate post dominator      @  PC=0x2fa8 (main.1.sm_70.ptx:1991) shfl.sync.idx.b32 %r324|%p221, %r7014, %r6046, %r6075, %r6076;
GPGPU-Sim PTX: 74 (potential) branch divergence @  PC=0x2fc8 (main.1.sm_70.ptx:1995) @%p4181 bra BB0_147;
GPGPU-Sim PTX:    immediate post dominator      @  PC=0x3030 (main.1.sm_70.ptx:2011) add.s32 %r24777, %r24777, 1;
GPGPU-Sim PTX: 75 (potential) branch divergence @  PC=0x3040 (main.1.sm_70.ptx:2013) @%p4185 bra BB0_139;
GPGPU-Sim PTX:    immediate post dominator      @  PC=0x3048 (main.1.sm_70.ptx:2015) xor.b32 %r7077, %r6037, 14;
GPGPU-Sim PTX: 76 (potential) branch divergence @  PC=0x30d0 (main.1.sm_70.ptx:2034) @%p4187 bra BB0_151;
GPGPU-Sim PTX:    immediate post dominator      @  PC=0x3138 (main.1.sm_70.ptx:2050) shfl.sync.idx.b32 %r339|%p229, %r7086, %r6045, %r6075, %r6076;
GPGPU-Sim PTX: 77 (potential) branch divergence @  PC=0x3158 (main.1.sm_70.ptx:2054) @%p4187 bra BB0_153;
GPGPU-Sim PTX:    immediate post dominator      @  PC=0x31c0 (main.1.sm_70.ptx:2070) shfl.sync.idx.b32 %r343|%p233, %r7086, %r6055, %r6075, %r6076;
GPGPU-Sim PTX: 78 (potential) branch divergence @  PC=0x31e0 (main.1.sm_70.ptx:2074) @%p4187 bra BB0_155;
GPGPU-Sim PTX:    immediate post dominator      @  PC=0x3248 (main.1.sm_70.ptx:2090) shfl.sync.idx.b32 %r347|%p237, %r7086, %r6046, %r6075, %r6076;
GPGPU-Sim PTX: 79 (potential) branch divergence @  PC=0x3268 (main.1.sm_70.ptx:2094) @%p4187 bra BB0_157;
GPGPU-Sim PTX:    immediate post dominator      @  PC=0x32d0 (main.1.sm_70.ptx:2110) add.s32 %r24778, %r24778, 1;
GPGPU-Sim PTX: 80 (potential) branch divergence @  PC=0x32e0 (main.1.sm_70.ptx:2112) @%p4191 bra BB0_149;
GPGPU-Sim PTX:    immediate post dominator      @  PC=0x32e8 (main.1.sm_70.ptx:2114) xor.b32 %r7149, %r6037, 15;
GPGPU-Sim PTX: 81 (potential) branch divergence @  PC=0x3370 (main.1.sm_70.ptx:2133) @%p4193 bra BB0_161;
GPGPU-Sim PTX:    immediate post dominator      @  PC=0x33d8 (main.1.sm_70.ptx:2149) shfl.sync.idx.b32 %r362|%p245, %r7158, %r6045, %r6075, %r6076;
GPGPU-Sim PTX: 82 (potential) branch divergence @  PC=0x33f8 (main.1.sm_70.ptx:2153) @%p4193 bra BB0_163;
GPGPU-Sim PTX:    immediate post dominator      @  PC=0x3460 (main.1.sm_70.ptx:2169) shfl.sync.idx.b32 %r366|%p249, %r7158, %r6055, %r6075, %r6076;
GPGPU-Sim PTX: 83 (potential) branch divergence @  PC=0x3480 (main.1.sm_70.ptx:2173) @%p4193 bra BB0_165;
GPGPU-Sim PTX:    immediate post dominator      @  PC=0x34e8 (main.1.sm_70.ptx:2189) shfl.sync.idx.b32 %r370|%p253, %r7158, %r6046, %r6075, %r6076;
GPGPU-Sim PTX: 84 (potential) branch divergence @  PC=0x3508 (main.1.sm_70.ptx:2193) @%p4193 bra BB0_167;
GPGPU-Sim PTX:    immediate post dominator      @  PC=0x3570 (main.1.sm_70.ptx:2209) add.s32 %r24779, %r24779, 1;
GPGPU-Sim PTX: 85 (potential) branch divergence @  PC=0x3580 (main.1.sm_70.ptx:2211) @%p4197 bra BB0_159;
GPGPU-Sim PTX:    immediate post dominator      @  PC=0x3588 (main.1.sm_70.ptx:2213) xor.b32 %r7221, %r6037, 16;
GPGPU-Sim PTX: 86 (potential) branch divergence @  PC=0x3610 (main.1.sm_70.ptx:2232) @%p4199 bra BB0_171;
GPGPU-Sim PTX:    immediate post dominator      @  PC=0x3678 (main.1.sm_70.ptx:2248) shfl.sync.idx.b32 %r385|%p261, %r7230, %r6045, %r6075, %r6076;
GPGPU-Sim PTX: 87 (potential) branch divergence @  PC=0x3698 (main.1.sm_70.ptx:2252) @%p4199 bra BB0_173;
GPGPU-Sim PTX:    immediate post dominator      @  PC=0x3700 (main.1.sm_70.ptx:2268) shfl.sync.idx.b32 %r389|%p265, %r7230, %r6055, %r6075, %r6076;
GPGPU-Sim PTX: 88 (potential) branch divergence @  PC=0x3720 (main.1.sm_70.ptx:2272) @%p4199 bra BB0_175;
GPGPU-Sim PTX:    immediate post dominator      @  PC=0x3788 (main.1.sm_70.ptx:2288) shfl.sync.idx.b32 %r393|%p269, %r7230, %r6046, %r6075, %r6076;
GPGPU-Sim PTX: 89 (potential) branch divergence @  PC=0x37a8 (main.1.sm_70.ptx:2292) @%p4199 bra BB0_177;
GPGPU-Sim PTX:    immediate post dominator      @  PC=0x3810 (main.1.sm_70.ptx:2308) add.s32 %r24780, %r24780, 1;
GPGPU-Sim PTX: 90 (potential) branch divergence @  PC=0x3820 (main.1.sm_70.ptx:2310) @%p4203 bra BB0_169;
GPGPU-Sim PTX:    immediate post dominator      @  PC=0x3828 (main.1.sm_70.ptx:2312) xor.b32 %r7293, %r6037, 17;
GPGPU-Sim PTX: 91 (potential) branch divergence @  PC=0x38b0 (main.1.sm_70.ptx:2331) @%p4205 bra BB0_181;
GPGPU-Sim PTX:    immediate post dominator      @  PC=0x3918 (main.1.sm_70.ptx:2347) shfl.sync.idx.b32 %r408|%p277, %r7302, %r6045, %r6075, %r6076;
GPGPU-Sim PTX: 92 (potential) branch divergence @  PC=0x3938 (main.1.sm_70.ptx:2351) @%p4205 bra BB0_183;
GPGPU-Sim PTX:    immediate post dominator      @  PC=0x39a0 (main.1.sm_70.ptx:2367) shfl.sync.idx.b32 %r412|%p281, %r7302, %r6055, %r6075, %r6076;
GPGPU-Sim PTX: 93 (potential) branch divergence @  PC=0x39c0 (main.1.sm_70.ptx:2371) @%p4205 bra BB0_185;
GPGPU-Sim PTX:    immediate post dominator      @  PC=0x3a28 (main.1.sm_70.ptx:2387) shfl.sync.idx.b32 %r416|%p285, %r7302, %r6046, %r6075, %r6076;
GPGPU-Sim PTX: 94 (potential) branch divergence @  PC=0x3a48 (main.1.sm_70.ptx:2391) @%p4205 bra BB0_187;
GPGPU-Sim PTX:    immediate post dominator      @  PC=0x3ab0 (main.1.sm_70.ptx:2407) add.s32 %r24781, %r24781, 1;
GPGPU-Sim PTX: 95 (potential) branch divergence @  PC=0x3ac0 (main.1.sm_70.ptx:2409) @%p4209 bra BB0_179;
GPGPU-Sim PTX:    immediate post dominator      @  PC=0x3ac8 (main.1.sm_70.ptx:2411) xor.b32 %r7365, %r6037, 18;
GPGPU-Sim PTX: 96 (potential) branch divergence @  PC=0x3b50 (main.1.sm_70.ptx:2430) @%p4211 bra BB0_191;
GPGPU-Sim PTX:    immediate post dominator      @  PC=0x3bb8 (main.1.sm_70.ptx:2446) shfl.sync.idx.b32 %r431|%p293, %r7374, %r6045, %r6075, %r6076;
GPGPU-Sim PTX: 97 (potential) branch divergence @  PC=0x3bd8 (main.1.sm_70.ptx:2450) @%p4211 bra BB0_193;
GPGPU-Sim PTX:    immediate post dominator      @  PC=0x3c40 (main.1.sm_70.ptx:2466) shfl.sync.idx.b32 %r435|%p297, %r7374, %r6055, %r6075, %r6076;
GPGPU-Sim PTX: 98 (potential) branch divergence @  PC=0x3c60 (main.1.sm_70.ptx:2470) @%p4211 bra BB0_195;
GPGPU-Sim PTX:    immediate post dominator      @  PC=0x3cc8 (main.1.sm_70.ptx:2486) shfl.sync.idx.b32 %r439|%p301, %r7374, %r6046, %r6075, %r6076;
GPGPU-Sim PTX: 99 (potential) branch divergence @  PC=0x3ce8 (main.1.sm_70.ptx:2490) @%p4211 bra BB0_197;
GPGPU-Sim PTX:    immediate post dominator      @  PC=0x3d50 (main.1.sm_70.ptx:2506) add.s32 %r24782, %r24782, 1;
GPGPU-Sim PTX: 100 (potential) branch divergence @  PC=0x3d60 (main.1.sm_70.ptx:2508) @%p4215 bra BB0_189;
GPGPU-Sim PTX:    immediate post dominator      @  PC=0x3d68 (main.1.sm_70.ptx:2510) xor.b32 %r7437, %r6037, 19;
GPGPU-Sim PTX: 101 (potential) branch divergence @  PC=0x3df0 (main.1.sm_70.ptx:2529) @%p4217 bra BB0_201;
GPGPU-Sim PTX:    immediate post dominator      @  PC=0x3e58 (main.1.sm_70.ptx:2545) shfl.sync.idx.b32 %r454|%p309, %r7446, %r6045, %r6075, %r6076;
GPGPU-Sim PTX: 102 (potential) branch divergence @  PC=0x3e78 (main.1.sm_70.ptx:2549) @%p4217 bra BB0_203;
GPGPU-Sim PTX:    immediate post dominator      @  PC=0x3ee0 (main.1.sm_70.ptx:2565) shfl.sync.idx.b32 %r458|%p313, %r7446, %r6055, %r6075, %r6076;
GPGPU-Sim PTX: 103 (potential) branch divergence @  PC=0x3f00 (main.1.sm_70.ptx:2569) @%p4217 bra BB0_205;
GPGPU-Sim PTX:    immediate post dominator      @  PC=0x3f68 (main.1.sm_70.ptx:2585) shfl.sync.idx.b32 %r462|%p317, %r7446, %r6046, %r6075, %r6076;
GPGPU-Sim PTX: 104 (potential) branch divergence @  PC=0x3f88 (main.1.sm_70.ptx:2589) @%p4217 bra BB0_207;
GPGPU-Sim PTX:    immediate post dominator      @  PC=0x3ff0 (main.1.sm_70.ptx:2605) add.s32 %r24783, %r24783, 1;
GPGPU-Sim PTX: 105 (potential) branch divergence @  PC=0x4000 (main.1.sm_70.ptx:2607) @%p4221 bra BB0_199;
GPGPU-Sim PTX:    immediate post dominator      @  PC=0x4008 (main.1.sm_70.ptx:2609) xor.b32 %r7509, %r6037, 20;
GPGPU-Sim PTX: 106 (potential) branch divergence @  PC=0x4090 (main.1.sm_70.ptx:2628) @%p4223 bra BB0_211;
GPGPU-Sim PTX:    immediate post dominator      @  PC=0x40f8 (main.1.sm_70.ptx:2644) shfl.sync.idx.b32 %r477|%p325, %r7518, %r6045, %r6075, %r6076;
GPGPU-Sim PTX: 107 (potential) branch divergence @  PC=0x4118 (main.1.sm_70.ptx:2648) @%p4223 bra BB0_213;
GPGPU-Sim PTX:    immediate post dominator      @  PC=0x4180 (main.1.sm_70.ptx:2664) shfl.sync.idx.b32 %r481|%p329, %r7518, %r6055, %r6075, %r6076;
GPGPU-Sim PTX: 108 (potential) branch divergence @  PC=0x41a0 (main.1.sm_70.ptx:2668) @%p4223 bra BB0_215;
GPGPU-Sim PTX:    immediate post dominator      @  PC=0x4208 (main.1.sm_70.ptx:2684) shfl.sync.idx.b32 %r485|%p333, %r7518, %r6046, %r6075, %r6076;
GPGPU-Sim PTX: 109 (potential) branch divergence @  PC=0x4228 (main.1.sm_70.ptx:2688) @%p4223 bra BB0_217;
GPGPU-Sim PTX:    immediate post dominator      @  PC=0x4290 (main.1.sm_70.ptx:2704) add.s32 %r24784, %r24784, 1;
GPGPU-Sim PTX: 110 (potential) branch divergence @  PC=0x42a0 (main.1.sm_70.ptx:2706) @%p4227 bra BB0_209;
GPGPU-Sim PTX:    immediate post dominator      @  PC=0x42a8 (main.1.sm_70.ptx:2708) xor.b32 %r7581, %r6037, 21;
GPGPU-Sim PTX: 111 (potential) branch divergence @  PC=0x4330 (main.1.sm_70.ptx:2727) @%p4229 bra BB0_221;
GPGPU-Sim PTX:    immediate post dominator      @  PC=0x4398 (main.1.sm_70.ptx:2743) shfl.sync.idx.b32 %r500|%p341, %r7590, %r6045, %r6075, %r6076;
GPGPU-Sim PTX: 112 (potential) branch divergence @  PC=0x43b8 (main.1.sm_70.ptx:2747) @%p4229 bra BB0_223;
GPGPU-Sim PTX:    immediate post dominator      @  PC=0x4420 (main.1.sm_70.ptx:2763) shfl.sync.idx.b32 %r504|%p345, %r7590, %r6055, %r6075, %r6076;
GPGPU-Sim PTX: 113 (potential) branch divergence @  PC=0x4440 (main.1.sm_70.ptx:2767) @%p4229 bra BB0_225;
GPGPU-Sim PTX:    immediate post dominator      @  PC=0x44a8 (main.1.sm_70.ptx:2783) shfl.sync.idx.b32 %r508|%p349, %r7590, %r6046, %r6075, %r6076;
GPGPU-Sim PTX: 114 (potential) branch divergence @  PC=0x44c8 (main.1.sm_70.ptx:2787) @%p4229 bra BB0_227;
GPGPU-Sim PTX:    immediate post dominator      @  PC=0x4530 (main.1.sm_70.ptx:2803) add.s32 %r24785, %r24785, 1;
GPGPU-Sim PTX: 115 (potential) branch divergence @  PC=0x4540 (main.1.sm_70.ptx:2805) @%p4233 bra BB0_219;
GPGPU-Sim PTX:    immediate post dominator      @  PC=0x4548 (main.1.sm_70.ptx:2807) xor.b32 %r7653, %r6037, 22;
GPGPU-Sim PTX: 116 (potential) branch divergence @  PC=0x45d0 (main.1.sm_70.ptx:2826) @%p4235 bra BB0_231;
GPGPU-Sim PTX:    immediate post dominator      @  PC=0x4638 (main.1.sm_70.ptx:2842) shfl.sync.idx.b32 %r523|%p357, %r7662, %r6045, %r6075, %r6076;
GPGPU-Sim PTX: 117 (potential) branch divergence @  PC=0x4658 (main.1.sm_70.ptx:2846) @%p4235 bra BB0_233;
GPGPU-Sim PTX:    immediate post dominator      @  PC=0x46c0 (main.1.sm_70.ptx:2862) shfl.sync.idx.b32 %r527|%p361, %r7662, %r6055, %r6075, %r6076;
GPGPU-Sim PTX: 118 (potential) branch divergence @  PC=0x46e0 (main.1.sm_70.ptx:2866) @%p4235 bra BB0_235;
GPGPU-Sim PTX:    immediate post dominator      @  PC=0x4748 (main.1.sm_70.ptx:2882) shfl.sync.idx.b32 %r531|%p365, %r7662, %r6046, %r6075, %r6076;
GPGPU-Sim PTX: 119 (potential) branch divergence @  PC=0x4768 (main.1.sm_70.ptx:2886) @%p4235 bra BB0_237;
GPGPU-Sim PTX:    immediate post dominator      @  PC=0x47d0 (main.1.sm_70.ptx:2902) add.s32 %r24786, %r24786, 1;
GPGPU-Sim PTX: 120 (potential) branch divergence @  PC=0x47e0 (main.1.sm_70.ptx:2904) @%p4239 bra BB0_229;
GPGPU-Sim PTX:    immediate post dominator      @  PC=0x47e8 (main.1.sm_70.ptx:2906) xor.b32 %r7725, %r6037, 23;
GPGPU-Sim PTX: 121 (potential) branch divergence @  PC=0x4870 (main.1.sm_70.ptx:2925) @%p4241 bra BB0_241;
GPGPU-Sim PTX:    immediate post dominator      @  PC=0x48d8 (main.1.sm_70.ptx:2941) shfl.sync.idx.b32 %r546|%p373, %r7734, %r6045, %r6075, %r6076;
GPGPU-Sim PTX: 122 (potential) branch divergence @  PC=0x48f8 (main.1.sm_70.ptx:2945) @%p4241 bra BB0_243;
GPGPU-Sim PTX:    immediate post dominator      @  PC=0x4960 (main.1.sm_70.ptx:2961) shfl.sync.idx.b32 %r550|%p377, %r7734, %r6055, %r6075, %r6076;
GPGPU-Sim PTX: 123 (potential) branch divergence @  PC=0x4980 (main.1.sm_70.ptx:2965) @%p4241 bra BB0_245;
GPGPU-Sim PTX:    immediate post dominator      @  PC=0x49e8 (main.1.sm_70.ptx:2981) shfl.sync.idx.b32 %r554|%p381, %r7734, %r6046, %r6075, %r6076;
GPGPU-Sim PTX: 124 (potential) branch divergence @  PC=0x4a08 (main.1.sm_70.ptx:2985) @%p4241 bra BB0_247;
GPGPU-Sim PTX:    immediate post dominator      @  PC=0x4a70 (main.1.sm_70.ptx:3001) add.s32 %r24787, %r24787, 1;
GPGPU-Sim PTX: 125 (potential) branch divergence @  PC=0x4a80 (main.1.sm_70.ptx:3003) @%p4245 bra BB0_239;
GPGPU-Sim PTX:    immediate post dominator      @  PC=0x4a88 (main.1.sm_70.ptx:3005) xor.b32 %r7797, %r6037, 24;
GPGPU-Sim PTX: 126 (potential) branch divergence @  PC=0x4b10 (main.1.sm_70.ptx:3024) @%p4247 bra BB0_251;
GPGPU-Sim PTX:    immediate post dominator      @  PC=0x4b78 (main.1.sm_70.ptx:3040) shfl.sync.idx.b32 %r569|%p389, %r7806, %r6045, %r6075, %r6076;
GPGPU-Sim PTX: 127 (potential) branch divergence @  PC=0x4b98 (main.1.sm_70.ptx:3044) @%p4247 bra BB0_253;
GPGPU-Sim PTX:    immediate post dominator      @  PC=0x4c00 (main.1.sm_70.ptx:3060) shfl.sync.idx.b32 %r573|%p393, %r7806, %r6055, %r6075, %r6076;
GPGPU-Sim PTX: 128 (potential) branch divergence @  PC=0x4c20 (main.1.sm_70.ptx:3064) @%p4247 bra BB0_255;
GPGPU-Sim PTX:    immediate post dominator      @  PC=0x4c88 (main.1.sm_70.ptx:3080) shfl.sync.idx.b32 %r577|%p397, %r7806, %r6046, %r6075, %r6076;
GPGPU-Sim PTX: 129 (potential) branch divergence @  PC=0x4ca8 (main.1.sm_70.ptx:3084) @%p4247 bra BB0_257;
GPGPU-Sim PTX:    immediate post dominator      @  PC=0x4d10 (main.1.sm_70.ptx:3100) add.s32 %r24788, %r24788, 1;
GPGPU-Sim PTX: 130 (potential) branch divergence @  PC=0x4d20 (main.1.sm_70.ptx:3102) @%p4251 bra BB0_249;
GPGPU-Sim PTX:    immediate post dominator      @  PC=0x4d28 (main.1.sm_70.ptx:3104) xor.b32 %r7869, %r6037, 25;
GPGPU-Sim PTX: 131 (potential) branch divergence @  PC=0x4db0 (main.1.sm_70.ptx:3123) @%p4253 bra BB0_261;
GPGPU-Sim PTX:    immediate post dominator      @  PC=0x4e18 (main.1.sm_70.ptx:3139) shfl.sync.idx.b32 %r592|%p405, %r7878, %r6045, %r6075, %r6076;
GPGPU-Sim PTX: 132 (potential) branch divergence @  PC=0x4e38 (main.1.sm_70.ptx:3143) @%p4253 bra BB0_263;
GPGPU-Sim PTX:    immediate post dominator      @  PC=0x4ea0 (main.1.sm_70.ptx:3159) shfl.sync.idx.b32 %r596|%p409, %r7878, %r6055, %r6075, %r6076;
GPGPU-Sim PTX: 133 (potential) branch divergence @  PC=0x4ec0 (main.1.sm_70.ptx:3163) @%p4253 bra BB0_265;
GPGPU-Sim PTX:    immediate post dominator      @  PC=0x4f28 (main.1.sm_70.ptx:3179) shfl.sync.idx.b32 %r600|%p413, %r7878, %r6046, %r6075, %r6076;
GPGPU-Sim PTX: 134 (potential) branch divergence @  PC=0x4f48 (main.1.sm_70.ptx:3183) @%p4253 bra BB0_267;
GPGPU-Sim PTX:    immediate post dominator      @  PC=0x4fb0 (main.1.sm_70.ptx:3199) add.s32 %r24789, %r24789, 1;
GPGPU-Sim PTX: 135 (potential) branch divergence @  PC=0x4fc0 (main.1.sm_70.ptx:3201) @%p4257 bra BB0_259;
GPGPU-Sim PTX:    immediate post dominator      @  PC=0x4fc8 (main.1.sm_70.ptx:3203) xor.b32 %r7941, %r6037, 26;
GPGPU-Sim PTX: 136 (potential) branch divergence @  PC=0x5050 (main.1.sm_70.ptx:3222) @%p4259 bra BB0_271;
GPGPU-Sim PTX:    immediate post dominator      @  PC=0x50b8 (main.1.sm_70.ptx:3238) shfl.sync.idx.b32 %r615|%p421, %r7950, %r6045, %r6075, %r6076;
GPGPU-Sim PTX: 137 (potential) branch divergence @  PC=0x50d8 (main.1.sm_70.ptx:3242) @%p4259 bra BB0_273;
GPGPU-Sim PTX:    immediate post dominator      @  PC=0x5140 (main.1.sm_70.ptx:3258) shfl.sync.idx.b32 %r619|%p425, %r7950, %r6055, %r6075, %r6076;
GPGPU-Sim PTX: 138 (potential) branch divergence @  PC=0x5160 (main.1.sm_70.ptx:3262) @%p4259 bra BB0_275;
GPGPU-Sim PTX:    immediate post dominator      @  PC=0x51c8 (main.1.sm_70.ptx:3278) shfl.sync.idx.b32 %r623|%p429, %r7950, %r6046, %r6075, %r6076;
GPGPU-Sim PTX: 139 (potential) branch divergence @  PC=0x51e8 (main.1.sm_70.ptx:3282) @%p4259 bra BB0_277;
GPGPU-Sim PTX:    immediate post dominator      @  PC=0x5250 (main.1.sm_70.ptx:3298) add.s32 %r24790, %r24790, 1;
GPGPU-Sim PTX: 140 (potential) branch divergence @  PC=0x5260 (main.1.sm_70.ptx:3300) @%p4263 bra BB0_269;
GPGPU-Sim PTX:    immediate post dominator      @  PC=0x5268 (main.1.sm_70.ptx:3302) xor.b32 %r8013, %r6037, 27;
GPGPU-Sim PTX: 141 (potential) branch divergence @  PC=0x52f0 (main.1.sm_70.ptx:3321) @%p4265 bra BB0_281;
GPGPU-Sim PTX:    immediate post dominator      @  PC=0x5358 (main.1.sm_70.ptx:3337) shfl.sync.idx.b32 %r638|%p437, %r8022, %r6045, %r6075, %r6076;
GPGPU-Sim PTX: 142 (potential) branch divergence @  PC=0x5378 (main.1.sm_70.ptx:3341) @%p4265 bra BB0_283;
GPGPU-Sim PTX:    immediate post dominator      @  PC=0x53e0 (main.1.sm_70.ptx:3357) shfl.sync.idx.b32 %r642|%p441, %r8022, %r6055, %r6075, %r6076;
GPGPU-Sim PTX: 143 (potential) branch divergence @  PC=0x5400 (main.1.sm_70.ptx:3361) @%p4265 bra BB0_285;
GPGPU-Sim PTX:    immediate post dominator      @  PC=0x5468 (main.1.sm_70.ptx:3377) shfl.sync.idx.b32 %r646|%p445, %r8022, %r6046, %r6075, %r6076;
GPGPU-Sim PTX: 144 (potential) branch divergence @  PC=0x5488 (main.1.sm_70.ptx:3381) @%p4265 bra BB0_287;
GPGPU-Sim PTX:    immediate post dominator      @  PC=0x54f0 (main.1.sm_70.ptx:3397) add.s32 %r24791, %r24791, 1;
GPGPU-Sim PTX: 145 (potential) branch divergence @  PC=0x5500 (main.1.sm_70.ptx:3399) @%p4269 bra BB0_279;
GPGPU-Sim PTX:    immediate post dominator      @  PC=0x5508 (main.1.sm_70.ptx:3401) xor.b32 %r8085, %r6037, 28;
GPGPU-Sim PTX: 146 (potential) branch divergence @  PC=0x5590 (main.1.sm_70.ptx:3420) @%p4271 bra BB0_291;
GPGPU-Sim PTX:    immediate post dominator      @  PC=0x55f8 (main.1.sm_70.ptx:3436) shfl.sync.idx.b32 %r661|%p453, %r8094, %r6045, %r6075, %r6076;
GPGPU-Sim PTX: 147 (potential) branch divergence @  PC=0x5618 (main.1.sm_70.ptx:3440) @%p4271 bra BB0_293;
GPGPU-Sim PTX:    immediate post dominator      @  PC=0x5680 (main.1.sm_70.ptx:3456) shfl.sync.idx.b32 %r665|%p457, %r8094, %r6055, %r6075, %r6076;
GPGPU-Sim PTX: 148 (potential) branch divergence @  PC=0x56a0 (main.1.sm_70.ptx:3460) @%p4271 bra BB0_295;
GPGPU-Sim PTX:    immediate post dominator      @  PC=0x5708 (main.1.sm_70.ptx:3476) shfl.sync.idx.b32 %r669|%p461, %r8094, %r6046, %r6075, %r6076;
GPGPU-Sim PTX: 149 (potential) branch divergence @  PC=0x5728 (main.1.sm_70.ptx:3480) @%p4271 bra BB0_297;
GPGPU-Sim PTX:    immediate post dominator      @  PC=0x5790 (main.1.sm_70.ptx:3496) add.s32 %r24792, %r24792, 1;
GPGPU-Sim PTX: 150 (potential) branch divergence @  PC=0x57a0 (main.1.sm_70.ptx:3498) @%p4275 bra BB0_289;
GPGPU-Sim PTX:    immediate post dominator      @  PC=0x57a8 (main.1.sm_70.ptx:3500) xor.b32 %r8157, %r6037, 29;
GPGPU-Sim PTX: 151 (potential) branch divergence @  PC=0x5830 (main.1.sm_70.ptx:3519) @%p4277 bra BB0_301;
GPGPU-Sim PTX:    immediate post dominator      @  PC=0x5898 (main.1.sm_70.ptx:3535) shfl.sync.idx.b32 %r684|%p469, %r8166, %r6045, %r6075, %r6076;
GPGPU-Sim PTX: 152 (potential) branch divergence @  PC=0x58b8 (main.1.sm_70.ptx:3539) @%p4277 bra BB0_303;
GPGPU-Sim PTX:    immediate post dominator      @  PC=0x5920 (main.1.sm_70.ptx:3555) shfl.sync.idx.b32 %r688|%p473, %r8166, %r6055, %r6075, %r6076;
GPGPU-Sim PTX: 153 (potential) branch divergence @  PC=0x5940 (main.1.sm_70.ptx:3559) @%p4277 bra BB0_305;
GPGPU-Sim PTX:    immediate post dominator      @  PC=0x59a8 (main.1.sm_70.ptx:3575) shfl.sync.idx.b32 %r692|%p477, %r8166, %r6046, %r6075, %r6076;
GPGPU-Sim PTX: 154 (potential) branch divergence @  PC=0x59c8 (main.1.sm_70.ptx:3579) @%p4277 bra BB0_307;
GPGPU-Sim PTX:    immediate post dominator      @  PC=0x5a30 (main.1.sm_70.ptx:3595) add.s32 %r24793, %r24793, 1;
GPGPU-Sim PTX: 155 (potential) branch divergence @  PC=0x5a40 (main.1.sm_70.ptx:3597) @%p4281 bra BB0_299;
GPGPU-Sim PTX:    immediate post dominator      @  PC=0x5a48 (main.1.sm_70.ptx:3599) xor.b32 %r8229, %r6037, 30;
GPGPU-Sim PTX: 156 (potential) branch divergence @  PC=0x5ad0 (main.1.sm_70.ptx:3618) @%p4283 bra BB0_311;
GPGPU-Sim PTX:    immediate post dominator      @  PC=0x5b38 (main.1.sm_70.ptx:3634) shfl.sync.idx.b32 %r707|%p485, %r8238, %r6045, %r6075, %r6076;
GPGPU-Sim PTX: 157 (potential) branch divergence @  PC=0x5b58 (main.1.sm_70.ptx:3638) @%p4283 bra BB0_313;
GPGPU-Sim PTX:    immediate post dominator      @  PC=0x5bc0 (main.1.sm_70.ptx:3654) shfl.sync.idx.b32 %r711|%p489, %r8238, %r6055, %r6075, %r6076;
GPGPU-Sim PTX: 158 (potential) branch divergence @  PC=0x5be0 (main.1.sm_70.ptx:3658) @%p4283 bra BB0_315;
GPGPU-Sim PTX:    immediate post dominator      @  PC=0x5c48 (main.1.sm_70.ptx:3674) shfl.sync.idx.b32 %r715|%p493, %r8238, %r6046, %r6075, %r6076;
GPGPU-Sim PTX: 159 (potential) branch divergence @  PC=0x5c68 (main.1.sm_70.ptx:3678) @%p4283 bra BB0_317;
GPGPU-Sim PTX:    immediate post dominator      @  PC=0x5cd0 (main.1.sm_70.ptx:3694) add.s32 %r24794, %r24794, 1;
GPGPU-Sim PTX: 160 (potential) branch divergence @  PC=0x5ce0 (main.1.sm_70.ptx:3696) @%p4287 bra BB0_309;
GPGPU-Sim PTX:    immediate post dominator      @  PC=0x5ce8 (main.1.sm_70.ptx:3698) xor.b32 %r8301, %r6037, 31;
GPGPU-Sim PTX: 161 (potential) branch divergence @  PC=0x5d70 (main.1.sm_70.ptx:3717) @%p4289 bra BB0_321;
GPGPU-Sim PTX:    immediate post dominator      @  PC=0x5dd8 (main.1.sm_70.ptx:3733) shfl.sync.idx.b32 %r730|%p501, %r8310, %r6045, %r6075, %r6076;
GPGPU-Sim PTX: 162 (potential) branch divergence @  PC=0x5df8 (main.1.sm_70.ptx:3737) @%p4289 bra BB0_323;
GPGPU-Sim PTX:    immediate post dominator      @  PC=0x5e60 (main.1.sm_70.ptx:3753) shfl.sync.idx.b32 %r734|%p505, %r8310, %r6055, %r6075, %r6076;
GPGPU-Sim PTX: 163 (potential) branch divergence @  PC=0x5e80 (main.1.sm_70.ptx:3757) @%p4289 bra BB0_325;
GPGPU-Sim PTX:    immediate post dominator      @  PC=0x5ee8 (main.1.sm_70.ptx:3773) shfl.sync.idx.b32 %r738|%p509, %r8310, %r6046, %r6075, %r6076;
GPGPU-Sim PTX: 164 (potential) branch divergence @  PC=0x5f08 (main.1.sm_70.ptx:3777) @%p4289 bra BB0_327;
GPGPU-Sim PTX:    immediate post dominator      @  PC=0x5f70 (main.1.sm_70.ptx:3793) add.s32 %r24795, %r24795, 1;
GPGPU-Sim PTX: 165 (potential) branch divergence @  PC=0x5f80 (main.1.sm_70.ptx:3795) @%p4293 bra BB0_319;
GPGPU-Sim PTX:    immediate post dominator      @  PC=0x5f88 (main.1.sm_70.ptx:3797) xor.b32 %r8373, %r6037, 32;
GPGPU-Sim PTX: 166 (potential) branch divergence @  PC=0x6010 (main.1.sm_70.ptx:3816) @%p4295 bra BB0_331;
GPGPU-Sim PTX:    immediate post dominator      @  PC=0x6078 (main.1.sm_70.ptx:3832) shfl.sync.idx.b32 %r753|%p517, %r8382, %r6045, %r6075, %r6076;
GPGPU-Sim PTX: 167 (potential) branch divergence @  PC=0x6098 (main.1.sm_70.ptx:3836) @%p4295 bra BB0_333;
GPGPU-Sim PTX:    immediate post dominator      @  PC=0x6100 (main.1.sm_70.ptx:3852) shfl.sync.idx.b32 %r757|%p521, %r8382, %r6055, %r6075, %r6076;
GPGPU-Sim PTX: 168 (potential) branch divergence @  PC=0x6120 (main.1.sm_70.ptx:3856) @%p4295 bra BB0_335;
GPGPU-Sim PTX:    immediate post dominator      @  PC=0x6188 (main.1.sm_70.ptx:3872) shfl.sync.idx.b32 %r761|%p525, %r8382, %r6046, %r6075, %r6076;
GPGPU-Sim PTX: 169 (potential) branch divergence @  PC=0x61a8 (main.1.sm_70.ptx:3876) @%p4295 bra BB0_337;
GPGPU-Sim PTX:    immediate post dominator      @  PC=0x6210 (main.1.sm_70.ptx:3892) add.s32 %r24796, %r24796, 1;
GPGPU-Sim PTX: 170 (potential) branch divergence @  PC=0x6220 (main.1.sm_70.ptx:3894) @%p4299 bra BB0_329;
GPGPU-Sim PTX:    immediate post dominator      @  PC=0x6228 (main.1.sm_70.ptx:3896) xor.b32 %r8445, %r6037, 33;
GPGPU-Sim PTX: 171 (potential) branch divergence @  PC=0x62b0 (main.1.sm_70.ptx:3915) @%p4301 bra BB0_341;
GPGPU-Sim PTX:    immediate post dominator      @  PC=0x6318 (main.1.sm_70.ptx:3931) shfl.sync.idx.b32 %r776|%p533, %r8454, %r6045, %r6075, %r6076;
GPGPU-Sim PTX: 172 (potential) branch divergence @  PC=0x6338 (main.1.sm_70.ptx:3935) @%p4301 bra BB0_343;
GPGPU-Sim PTX:    immediate post dominator      @  PC=0x63a0 (main.1.sm_70.ptx:3951) shfl.sync.idx.b32 %r780|%p537, %r8454, %r6055, %r6075, %r6076;
GPGPU-Sim PTX: 173 (potential) branch divergence @  PC=0x63c0 (main.1.sm_70.ptx:3955) @%p4301 bra BB0_345;
GPGPU-Sim PTX:    immediate post dominator      @  PC=0x6428 (main.1.sm_70.ptx:3971) shfl.sync.idx.b32 %r784|%p541, %r8454, %r6046, %r6075, %r6076;
GPGPU-Sim PTX: 174 (potential) branch divergence @  PC=0x6448 (main.1.sm_70.ptx:3975) @%p4301 bra BB0_347;
GPGPU-Sim PTX:    immediate post dominator      @  PC=0x64b0 (main.1.sm_70.ptx:3991) add.s32 %r24797, %r24797, 1;
GPGPU-Sim PTX: 175 (potential) branch divergence @  PC=0x64c0 (main.1.sm_70.ptx:3993) @%p4305 bra BB0_339;
GPGPU-Sim PTX:    immediate post dominator      @  PC=0x64c8 (main.1.sm_70.ptx:3995) xor.b32 %r8517, %r6037, 34;
GPGPU-Sim PTX: 176 (potential) branch divergence @  PC=0x6550 (main.1.sm_70.ptx:4014) @%p4307 bra BB0_351;
GPGPU-Sim PTX:    immediate post dominator      @  PC=0x65b8 (main.1.sm_70.ptx:4030) shfl.sync.idx.b32 %r799|%p549, %r8526, %r6045, %r6075, %r6076;
GPGPU-Sim PTX: 177 (potential) branch divergence @  PC=0x65d8 (main.1.sm_70.ptx:4034) @%p4307 bra BB0_353;
GPGPU-Sim PTX:    immediate post dominator      @  PC=0x6640 (main.1.sm_70.ptx:4050) shfl.sync.idx.b32 %r803|%p553, %r8526, %r6055, %r6075, %r6076;
GPGPU-Sim PTX: 178 (potential) branch divergence @  PC=0x6660 (main.1.sm_70.ptx:4054) @%p4307 bra BB0_355;
GPGPU-Sim PTX:    immediate post dominator      @  PC=0x66c8 (main.1.sm_70.ptx:4070) shfl.sync.idx.b32 %r807|%p557, %r8526, %r6046, %r6075, %r6076;
GPGPU-Sim PTX: 179 (potential) branch divergence @  PC=0x66e8 (main.1.sm_70.ptx:4074) @%p4307 bra BB0_357;
GPGPU-Sim PTX:    immediate post dominator      @  PC=0x6750 (main.1.sm_70.ptx:4090) add.s32 %r24798, %r24798, 1;
GPGPU-Sim PTX: 180 (potential) branch divergence @  PC=0x6760 (main.1.sm_70.ptx:4092) @%p4311 bra BB0_349;
GPGPU-Sim PTX:    immediate post dominator      @  PC=0x6768 (main.1.sm_70.ptx:4094) xor.b32 %r8589, %r6037, 35;
GPGPU-Sim PTX: 181 (potential) branch divergence @  PC=0x67f0 (main.1.sm_70.ptx:4113) @%p4313 bra BB0_361;
GPGPU-Sim PTX:    immediate post dominator      @  PC=0x6858 (main.1.sm_70.ptx:4129) shfl.sync.idx.b32 %r822|%p565, %r8598, %r6045, %r6075, %r6076;
GPGPU-Sim PTX: 182 (potential) branch divergence @  PC=0x6878 (main.1.sm_70.ptx:4133) @%p4313 bra BB0_363;
GPGPU-Sim PTX:    immediate post dominator      @  PC=0x68e0 (main.1.sm_70.ptx:4149) shfl.sync.idx.b32 %r826|%p569, %r8598, %r6055, %r6075, %r6076;
GPGPU-Sim PTX: 183 (potential) branch divergence @  PC=0x6900 (main.1.sm_70.ptx:4153) @%p4313 bra BB0_365;
GPGPU-Sim PTX:    immediate post dominator      @  PC=0x6968 (main.1.sm_70.ptx:4169) shfl.sync.idx.b32 %r830|%p573, %r8598, %r6046, %r6075, %r6076;
GPGPU-Sim PTX: 184 (potential) branch divergence @  PC=0x6988 (main.1.sm_70.ptx:4173) @%p4313 bra BB0_367;
GPGPU-Sim PTX:    immediate post dominator      @  PC=0x69f0 (main.1.sm_70.ptx:4189) add.s32 %r24799, %r24799, 1;
GPGPU-Sim PTX: 185 (potential) branch divergence @  PC=0x6a00 (main.1.sm_70.ptx:4191) @%p4317 bra BB0_359;
GPGPU-Sim PTX:    immediate post dominator      @  PC=0x6a08 (main.1.sm_70.ptx:4193) xor.b32 %r8661, %r6037, 36;
GPGPU-Sim PTX: 186 (potential) branch divergence @  PC=0x6a90 (main.1.sm_70.ptx:4212) @%p4319 bra BB0_371;
GPGPU-Sim PTX:    immediate post dominator      @  PC=0x6af8 (main.1.sm_70.ptx:4228) shfl.sync.idx.b32 %r845|%p581, %r8670, %r6045, %r6075, %r6076;
GPGPU-Sim PTX: 187 (potential) branch divergence @  PC=0x6b18 (main.1.sm_70.ptx:4232) @%p4319 bra BB0_373;
GPGPU-Sim PTX:    immediate post dominator      @  PC=0x6b80 (main.1.sm_70.ptx:4248) shfl.sync.idx.b32 %r849|%p585, %r8670, %r6055, %r6075, %r6076;
GPGPU-Sim PTX: 188 (potential) branch divergence @  PC=0x6ba0 (main.1.sm_70.ptx:4252) @%p4319 bra BB0_375;
GPGPU-Sim PTX:    immediate post dominator      @  PC=0x6c08 (main.1.sm_70.ptx:4268) shfl.sync.idx.b32 %r853|%p589, %r8670, %r6046, %r6075, %r6076;
GPGPU-Sim PTX: 189 (potential) branch divergence @  PC=0x6c28 (main.1.sm_70.ptx:4272) @%p4319 bra BB0_377;
GPGPU-Sim PTX:    immediate post dominator      @  PC=0x6c90 (main.1.sm_70.ptx:4288) add.s32 %r24800, %r24800, 1;
GPGPU-Sim PTX: 190 (potential) branch divergence @  PC=0x6ca0 (main.1.sm_70.ptx:4290) @%p4323 bra BB0_369;
GPGPU-Sim PTX:    immediate post dominator      @  PC=0x6ca8 (main.1.sm_70.ptx:4292) xor.b32 %r8733, %r6037, 37;
GPGPU-Sim PTX: 191 (potential) branch divergence @  PC=0x6d30 (main.1.sm_70.ptx:4311) @%p4325 bra BB0_381;
GPGPU-Sim PTX:    immediate post dominator      @  PC=0x6d98 (main.1.sm_70.ptx:4327) shfl.sync.idx.b32 %r868|%p597, %r8742, %r6045, %r6075, %r6076;
GPGPU-Sim PTX: 192 (potential) branch divergence @  PC=0x6db8 (main.1.sm_70.ptx:4331) @%p4325 bra BB0_383;
GPGPU-Sim PTX:    immediate post dominator      @  PC=0x6e20 (main.1.sm_70.ptx:4347) shfl.sync.idx.b32 %r872|%p601, %r8742, %r6055, %r6075, %r6076;
GPGPU-Sim PTX: 193 (potential) branch divergence @  PC=0x6e40 (main.1.sm_70.ptx:4351) @%p4325 bra BB0_385;
GPGPU-Sim PTX:    immediate post dominator      @  PC=0x6ea8 (main.1.sm_70.ptx:4367) shfl.sync.idx.b32 %r876|%p605, %r8742, %r6046, %r6075, %r6076;
GPGPU-Sim PTX: 194 (potential) branch divergence @  PC=0x6ec8 (main.1.sm_70.ptx:4371) @%p4325 bra BB0_387;
GPGPU-Sim PTX:    immediate post dominator      @  PC=0x6f30 (main.1.sm_70.ptx:4387) add.s32 %r24801, %r24801, 1;
GPGPU-Sim PTX: 195 (potential) branch divergence @  PC=0x6f40 (main.1.sm_70.ptx:4389) @%p4329 bra BB0_379;
GPGPU-Sim PTX:    immediate post dominator      @  PC=0x6f48 (main.1.sm_70.ptx:4391) xor.b32 %r8805, %r6037, 38;
GPGPU-Sim PTX: 196 (potential) branch divergence @  PC=0x6fd0 (main.1.sm_70.ptx:4410) @%p4331 bra BB0_391;
GPGPU-Sim PTX:    immediate post dominator      @  PC=0x7038 (main.1.sm_70.ptx:4426) shfl.sync.idx.b32 %r891|%p613, %r8814, %r6045, %r6075, %r6076;
GPGPU-Sim PTX: 197 (potential) branch divergence @  PC=0x7058 (main.1.sm_70.ptx:4430) @%p4331 bra BB0_393;
GPGPU-Sim PTX:    immediate post dominator      @  PC=0x70c0 (main.1.sm_70.ptx:4446) shfl.sync.idx.b32 %r895|%p617, %r8814, %r6055, %r6075, %r6076;
GPGPU-Sim PTX: 198 (potential) branch divergence @  PC=0x70e0 (main.1.sm_70.ptx:4450) @%p4331 bra BB0_395;
GPGPU-Sim PTX:    immediate post dominator      @  PC=0x7148 (main.1.sm_70.ptx:4466) shfl.sync.idx.b32 %r899|%p621, %r8814, %r6046, %r6075, %r6076;
GPGPU-Sim PTX: 199 (potential) branch divergence @  PC=0x7168 (main.1.sm_70.ptx:4470) @%p4331 bra BB0_397;
GPGPU-Sim PTX:    immediate post dominator      @  PC=0x71d0 (main.1.sm_70.ptx:4486) add.s32 %r24802, %r24802, 1;
GPGPU-Sim PTX: 200 (potential) branch divergence @  PC=0x71e0 (main.1.sm_70.ptx:4488) @%p4335 bra BB0_389;
GPGPU-Sim PTX:    immediate post dominator      @  PC=0x71e8 (main.1.sm_70.ptx:4490) xor.b32 %r8877, %r6037, 39;
GPGPU-Sim PTX: 201 (potential) branch divergence @  PC=0x7270 (main.1.sm_70.ptx:4509) @%p4337 bra BB0_401;
GPGPU-Sim PTX:    immediate post dominator      @  PC=0x72d8 (main.1.sm_70.ptx:4525) shfl.sync.idx.b32 %r914|%p629, %r8886, %r6045, %r6075, %r6076;
GPGPU-Sim PTX: 202 (potential) branch divergence @  PC=0x72f8 (main.1.sm_70.ptx:4529) @%p4337 bra BB0_403;
GPGPU-Sim PTX:    immediate post dominator      @  PC=0x7360 (main.1.sm_70.ptx:4545) shfl.sync.idx.b32 %r918|%p633, %r8886, %r6055, %r6075, %r6076;
GPGPU-Sim PTX: 203 (potential) branch divergence @  PC=0x7380 (main.1.sm_70.ptx:4549) @%p4337 bra BB0_405;
GPGPU-Sim PTX:    immediate post dominator      @  PC=0x73e8 (main.1.sm_70.ptx:4565) shfl.sync.idx.b32 %r922|%p637, %r8886, %r6046, %r6075, %r6076;
GPGPU-Sim PTX: 204 (potential) branch divergence @  PC=0x7408 (main.1.sm_70.ptx:4569) @%p4337 bra BB0_407;
GPGPU-Sim PTX:    immediate post dominator      @  PC=0x7470 (main.1.sm_70.ptx:4585) add.s32 %r24803, %r24803, 1;
GPGPU-Sim PTX: 205 (potential) branch divergence @  PC=0x7480 (main.1.sm_70.ptx:4587) @%p4341 bra BB0_399;
GPGPU-Sim PTX:    immediate post dominator      @  PC=0x7488 (main.1.sm_70.ptx:4589) xor.b32 %r8949, %r6037, 40;
GPGPU-Sim PTX: 206 (potential) branch divergence @  PC=0x7510 (main.1.sm_70.ptx:4608) @%p4343 bra BB0_411;
GPGPU-Sim PTX:    immediate post dominator      @  PC=0x7578 (main.1.sm_70.ptx:4624) shfl.sync.idx.b32 %r937|%p645, %r8958, %r6045, %r6075, %r6076;
GPGPU-Sim PTX: 207 (potential) branch divergence @  PC=0x7598 (main.1.sm_70.ptx:4628) @%p4343 bra BB0_413;
GPGPU-Sim PTX:    immediate post dominator      @  PC=0x7600 (main.1.sm_70.ptx:4644) shfl.sync.idx.b32 %r941|%p649, %r8958, %r6055, %r6075, %r6076;
GPGPU-Sim PTX: 208 (potential) branch divergence @  PC=0x7620 (main.1.sm_70.ptx:4648) @%p4343 bra BB0_415;
GPGPU-Sim PTX:    immediate post dominator      @  PC=0x7688 (main.1.sm_70.ptx:4664) shfl.sync.idx.b32 %r945|%p653, %r8958, %r6046, %r6075, %r6076;
GPGPU-Sim PTX: 209 (potential) branch divergence @  PC=0x76a8 (main.1.sm_70.ptx:4668) @%p4343 bra BB0_417;
GPGPU-Sim PTX:    immediate post dominator      @  PC=0x7710 (main.1.sm_70.ptx:4684) add.s32 %r24804, %r24804, 1;
GPGPU-Sim PTX: 210 (potential) branch divergence @  PC=0x7720 (main.1.sm_70.ptx:4686) @%p4347 bra BB0_409;
GPGPU-Sim PTX:    immediate post dominator      @  PC=0x7728 (main.1.sm_70.ptx:4688) xor.b32 %r9021, %r6037, 41;
GPGPU-Sim PTX: 211 (potential) branch divergence @  PC=0x77b0 (main.1.sm_70.ptx:4707) @%p4349 bra BB0_421;
GPGPU-Sim PTX:    immediate post dominator      @  PC=0x7818 (main.1.sm_70.ptx:4723) shfl.sync.idx.b32 %r960|%p661, %r9030, %r6045, %r6075, %r6076;
GPGPU-Sim PTX: 212 (potential) branch divergence @  PC=0x7838 (main.1.sm_70.ptx:4727) @%p4349 bra BB0_423;
GPGPU-Sim PTX:    immediate post dominator      @  PC=0x78a0 (main.1.sm_70.ptx:4743) shfl.sync.idx.b32 %r964|%p665, %r9030, %r6055, %r6075, %r6076;
GPGPU-Sim PTX: 213 (potential) branch divergence @  PC=0x78c0 (main.1.sm_70.ptx:4747) @%p4349 bra BB0_425;
GPGPU-Sim PTX:    immediate post dominator      @  PC=0x7928 (main.1.sm_70.ptx:4763) shfl.sync.idx.b32 %r968|%p669, %r9030, %r6046, %r6075, %r6076;
GPGPU-Sim PTX: 214 (potential) branch divergence @  PC=0x7948 (main.1.sm_70.ptx:4767) @%p4349 bra BB0_427;
GPGPU-Sim PTX:    immediate post dominator      @  PC=0x79b0 (main.1.sm_70.ptx:4783) add.s32 %r24805, %r24805, 1;
GPGPU-Sim PTX: 215 (potential) branch divergence @  PC=0x79c0 (main.1.sm_70.ptx:4785) @%p4353 bra BB0_419;
GPGPU-Sim PTX:    immediate post dominator      @  PC=0x79c8 (main.1.sm_70.ptx:4787) xor.b32 %r9093, %r6037, 42;
GPGPU-Sim PTX: 216 (potential) branch divergence @  PC=0x7a50 (main.1.sm_70.ptx:4806) @%p4355 bra BB0_431;
GPGPU-Sim PTX:    immediate post dominator      @  PC=0x7ab8 (main.1.sm_70.ptx:4822) shfl.sync.idx.b32 %r983|%p677, %r9102, %r6045, %r6075, %r6076;
[...]

------------------------------------------------------------------------

Row_Buffer_Locality = 0.984375
Row_Buffer_Locality_read = 0.984375
Row_Buffer_Locality_write = -nan
Bank_Level_Parallism = 1.000000
Bank_Level_Parallism_Col = 1.000000
Bank_Level_Parallism_Ready = 1.000000
write_to_read_ratio_blp_rw_average = 0.000000
GrpLevelPara = 1.000000 

BW Util details:
bwutil = 0.000188 
total_CMD = 2040398 
util_bw = 384 
Wasted_Col = 432 
Wasted_Row = 0 
Idle = 2039582 

BW Util Bottlenecks: 
RCDc_limit = 72 
RCDWRc_limit = 0 
WTRc_limit = 0 
RTWc_limit = 0 
CCDLc_limit = 360 
rwq = 0 
CCDLc_limit_alone = 360 
WTRc_limit_alone = 0 
RTWc_limit_alone = 0 

Commands details: 
total_CMD = 2040398 
n_nop = 2040008 
Read = 384 
Write = 0 
L2_Alloc = 0 
L2_WB = 0 
n_act = 6 
n_pre = 0 
n_ref = 0 
n_req = 384 
total_req = 384 

Dual Bus Interface Util: 
issued_total_row = 6 
issued_total_col = 384 
Row_Bus_Util =  0.000003 
CoL_Bus_Util = 0.000188 
Either_Row_CoL_Bus_Util = 0.000191 
Issued_on_Two_Bus_Simul_Util = 0.000000 
issued_two_Eff = 0.000000 
queue_avg = 0.001723 


dram_util_bins: 0 0 0 0 0 0 0 0 0 0
dram_eff_bins: 0 0 0 0 0 0 0 0 0 0
mrqq: max=13 avg=0.00172319
Memory Partition 29: 
Cache L2_bank_058:
MSHR contents

Cache L2_bank_059:
MSHR contents

In Dram Latency Queue (total = 0): 
DRAM[29]: 16 bks, busW=16 BL=2 CL=12, tRRD=3 tCCD=1, tRCD=12 tRAS=28 tRP=12 tRC=40
n_cmd=2040398 n_nop=2040008 n_act=6 n_pre=0 n_ref_event=0 n_req=384 n_rd=384 n_rd_L2_A=0 n_write=0 n_wr_bk=0 bw_util=0.0001882
n_activity=1104 dram_eff=0.3478
bk0: 64a 2040326i bk1: 64a 2040326i bk2: 64a 2040326i bk3: 64a 2040326i bk4: 64a 2040326i bk5: 64a 2040326i bk6: 0a 2040398i bk7: 0a 2040398i bk8: 0a 2040398i bk9: 0a 2040398i bk10: 0a 2040398i bk11: 0a 2040398i bk12: 0a 2040398i bk13: 0a 2040398i bk14: 0a 2040398i bk15: 0a 2040398i 

------------------------------------------------------------------------

Row_Buffer_Locality = 0.984375
Row_Buffer_Locality_read = 0.984375
Row_Buffer_Locality_write = -nan
Bank_Level_Parallism = 1.000000
Bank_Level_Parallism_Col = 1.000000
Bank_Level_Parallism_Ready = 1.000000
write_to_read_ratio_blp_rw_average = 0.000000
GrpLevelPara = 1.000000 

BW Util details:
bwutil = 0.000188 
total_CMD = 2040398 
util_bw = 384 
Wasted_Col = 432 
Wasted_Row = 0 
Idle = 2039582 

BW Util Bottlenecks: 
RCDc_limit = 72 
RCDWRc_limit = 0 
WTRc_limit = 0 
RTWc_limit = 0 
CCDLc_limit = 360 
rwq = 0 
CCDLc_limit_alone = 360 
WTRc_limit_alone = 0 
RTWc_limit_alone = 0 

Commands details: 
total_CMD = 2040398 
n_nop = 2040008 
Read = 384 
Write = 0 
L2_Alloc = 0 
L2_WB = 0 
n_act = 6 
n_pre = 0 
n_ref = 0 
n_req = 384 
total_req = 384 

Dual Bus Interface Util: 
issued_total_row = 6 
issued_total_col = 384 
Row_Bus_Util =  0.000003 
CoL_Bus_Util = 0.000188 
Either_Row_CoL_Bus_Util = 0.000191 
Issued_on_Two_Bus_Simul_Util = 0.000000 
issued_two_Eff = 0.000000 
queue_avg = 0.001723 


dram_util_bins: 0 0 0 0 0 0 0 0 0 0
dram_eff_bins: 0 0 0 0 0 0 0 0 0 0
mrqq: max=13 avg=0.00172319
Memory Partition 30: 
Cache L2_bank_060:
MSHR contents

Cache L2_bank_061:
MSHR contents

In Dram Latency Queue (total = 0): 
DRAM[30]: 16 bks, busW=16 BL=2 CL=12, tRRD=3 tCCD=1, tRCD=12 tRAS=28 tRP=12 tRC=40
n_cmd=2040398 n_nop=2040008 n_act=6 n_pre=0 n_ref_event=0 n_req=384 n_rd=384 n_rd_L2_A=0 n_write=0 n_wr_bk=0 bw_util=0.0001882
n_activity=1104 dram_eff=0.3478
bk0: 64a 2040326i bk1: 64a 2040327i bk2: 64a 2040326i bk3: 64a 2040327i bk4: 64a 2040326i bk5: 64a 2040327i bk6: 0a 2040398i bk7: 0a 2040398i bk8: 0a 2040398i bk9: 0a 2040398i bk10: 0a 2040398i bk11: 0a 2040398i bk12: 0a 2040398i bk13: 0a 2040398i bk14: 0a 2040398i bk15: 0a 2040398i 

------------------------------------------------------------------------

Row_Buffer_Locality = 0.984375
Row_Buffer_Locality_read = 0.984375
Row_Buffer_Locality_write = -nan
Bank_Level_Parallism = 1.000000
Bank_Level_Parallism_Col = 1.000000
Bank_Level_Parallism_Ready = 1.000000
write_to_read_ratio_blp_rw_average = 0.000000
GrpLevelPara = 1.000000 

BW Util details:
bwutil = 0.000188 
total_CMD = 2040398 
util_bw = 384 
Wasted_Col = 429 
Wasted_Row = 0 
Idle = 2039585 

BW Util Bottlenecks: 
RCDc_limit = 72 
RCDWRc_limit = 0 
WTRc_limit = 0 
RTWc_limit = 0 
CCDLc_limit = 357 
rwq = 0 
CCDLc_limit_alone = 357 
WTRc_limit_alone = 0 
RTWc_limit_alone = 0 

Commands details: 
total_CMD = 2040398 
n_nop = 2040008 
Read = 384 
Write = 0 
L2_Alloc = 0 
L2_WB = 0 
n_act = 6 
n_pre = 0 
n_ref = 0 
n_req = 384 
total_req = 384 

Dual Bus Interface Util: 
issued_total_row = 6 
issued_total_col = 384 
Row_Bus_Util =  0.000003 
CoL_Bus_Util = 0.000188 
Either_Row_CoL_Bus_Util = 0.000191 
Issued_on_Two_Bus_Simul_Util = 0.000000 
issued_two_Eff = 0.000000 
queue_avg = 0.001722 


dram_util_bins: 0 0 0 0 0 0 0 0 0 0
dram_eff_bins: 0 0 0 0 0 0 0 0 0 0
mrqq: max=13 avg=0.00172172
Memory Partition 31: 
Cache L2_bank_062:
MSHR contents

Cache L2_bank_063:
MSHR contents

In Dram Latency Queue (total = 0): 
DRAM[31]: 16 bks, busW=16 BL=2 CL=12, tRRD=3 tCCD=1, tRCD=12 tRAS=28 tRP=12 tRC=40
n_cmd=2040398 n_nop=2040008 n_act=6 n_pre=0 n_ref_event=0 n_req=384 n_rd=384 n_rd_L2_A=0 n_write=0 n_wr_bk=0 bw_util=0.0001882
n_activity=1104 dram_eff=0.3478
bk0: 64a 2040327i bk1: 64a 2040326i bk2: 64a 2040327i bk3: 64a 2040326i bk4: 64a 2040327i bk5: 64a 2040326i bk6: 0a 2040398i bk7: 0a 2040398i bk8: 0a 2040398i bk9: 0a 2040398i bk10: 0a 2040398i bk11: 0a 2040398i bk12: 0a 2040398i bk13: 0a 2040398i bk14: 0a 2040398i bk15: 0a 2040398i 

------------------------------------------------------------------------

Row_Buffer_Locality = 0.984375
Row_Buffer_Locality_read = 0.984375
Row_Buffer_Locality_write = -nan
Bank_Level_Parallism = 1.000000
Bank_Level_Parallism_Col = 1.000000
Bank_Level_Parallism_Ready = 1.000000
write_to_read_ratio_blp_rw_average = 0.000000
GrpLevelPara = 1.000000 

BW Util details:
bwutil = 0.000188 
total_CMD = 2040398 
util_bw = 384 
Wasted_Col = 429 
Wasted_Row = 0 
Idle = 2039585 

BW Util Bottlenecks: 
RCDc_limit = 72 
RCDWRc_limit = 0 
WTRc_limit = 0 
RTWc_limit = 0 
CCDLc_limit = 357 
rwq = 0 
CCDLc_limit_alone = 357 
WTRc_limit_alone = 0 
RTWc_limit_alone = 0 

Commands details: 
total_CMD = 2040398 
n_nop = 2040008 
Read = 384 
Write = 0 
L2_Alloc = 0 
L2_WB = 0 
n_act = 6 
n_pre = 0 
n_ref = 0 
n_req = 384 
total_req = 384 

Dual Bus Interface Util: 
issued_total_row = 6 
issued_total_col = 384 
Row_Bus_Util =  0.000003 
CoL_Bus_Util = 0.000188 
Either_Row_CoL_Bus_Util = 0.000191 
Issued_on_Two_Bus_Simul_Util = 0.000000 
issued_two_Eff = 0.000000 
queue_avg = 0.001681 


dram_util_bins: 0 0 0 0 0 0 0 0 0 0
dram_eff_bins: 0 0 0 0 0 0 0 0 0 0
mrqq: max=13 avg=0.00168055

========= L2 cache stats =========
L2_cache_bank[0]: Access = 506, Miss = 256, Miss_rate = 0.506, Pending_hits = 0, Reservation_fails = 0
L2_cache_bank[1]: Access = 320, Miss = 224, Miss_rate = 0.700, Pending_hits = 0, Reservation_fails = 0
L2_cache_bank[2]: Access = 448, Miss = 256, Miss_rate = 0.571, Pending_hits = 0, Reservation_fails = 0
L2_cache_bank[3]: Access = 320, Miss = 224, Miss_rate = 0.700, Pending_hits = 0, Reservation_fails = 0
L2_cache_bank[4]: Access = 544, Miss = 304, Miss_rate = 0.559, Pending_hits = 0, Reservation_fails = 0
L2_cache_bank[5]: Access = 320, Miss = 224, Miss_rate = 0.700, Pending_hits = 0, Reservation_fails = 0
L2_cache_bank[6]: Access = 448, Miss = 256, Miss_rate = 0.571, Pending_hits = 0, Reservation_fails = 0
L2_cache_bank[7]: Access = 320, Miss = 224, Miss_rate = 0.700, Pending_hits = 0, Reservation_fails = 0
L2_cache_bank[8]: Access = 448, Miss = 256, Miss_rate = 0.571, Pending_hits = 0, Reservation_fails = 0
L2_cache_bank[9]: Access = 320, Miss = 224, Miss_rate = 0.700, Pending_hits = 0, Reservation_fails = 0
L2_cache_bank[10]: Access = 448, Miss = 256, Miss_rate = 0.571, Pending_hits = 0, Reservation_fails = 0
L2_cache_bank[11]: Access = 320, Miss = 224, Miss_rate = 0.700, Pending_hits = 0, Reservation_fails = 0
L2_cache_bank[12]: Access = 448, Miss = 256, Miss_rate = 0.571, Pending_hits = 0, Reservation_fails = 0
L2_cache_bank[13]: Access = 320, Miss = 224, Miss_rate = 0.700, Pending_hits = 0, Reservation_fails = 0
L2_cache_bank[14]: Access = 448, Miss = 256, Miss_rate = 0.571, Pending_hits = 0, Reservation_fails = 0
L2_cache_bank[15]: Access = 320, Miss = 224, Miss_rate = 0.700, Pending_hits = 0, Reservation_fails = 0
L2_cache_bank[16]: Access = 448, Miss = 256, Miss_rate = 0.571, Pending_hits = 0, Reservation_fails = 0
L2_cache_bank[17]: Access = 320, Miss = 224, Miss_rate = 0.700, Pending_hits = 0, Reservation_fails = 0
L2_cache_bank[18]: Access = 448, Miss = 256, Miss_rate = 0.571, Pending_hits = 0, Reservation_fails = 0
L2_cache_bank[19]: Access = 320, Miss = 224, Miss_rate = 0.700, Pending_hits = 0, Reservation_fails = 0
L2_cache_bank[20]: Access = 448, Miss = 256, Miss_rate = 0.571, Pending_hits = 0, Reservation_fails = 0
L2_cache_bank[21]: Access = 320, Miss = 224, Miss_rate = 0.700, Pending_hits = 0, Reservation_fails = 0
L2_cache_bank[22]: Access = 448, Miss = 256, Miss_rate = 0.571, Pending_hits = 0, Reservation_fails = 0
L2_cache_bank[23]: Access = 320, Miss = 224, Miss_rate = 0.700, Pending_hits = 0, Reservation_fails = 0
L2_cache_bank[24]: Access = 448, Miss = 256, Miss_rate = 0.571, Pending_hits = 0, Reservation_fails = 0
L2_cache_bank[25]: Access = 320, Miss = 224, Miss_rate = 0.700, Pending_hits = 0, Reservation_fails = 0
L2_cache_bank[26]: Access = 448, Miss = 256, Miss_rate = 0.571, Pending_hits = 0, Reservation_fails = 0
L2_cache_bank[27]: Access = 320, Miss = 224, Miss_rate = 0.700, Pending_hits = 0, Reservation_fails = 0
L2_cache_bank[28]: Access = 460, Miss = 256, Miss_rate = 0.557, Pending_hits = 0, Reservation_fails = 0
L2_cache_bank[29]: Access = 320, Miss = 224, Miss_rate = 0.700, Pending_hits = 0, Reservation_fails = 0
L2_cache_bank[30]: Access = 487, Miss = 256, Miss_rate = 0.526, Pending_hits = 0, Reservation_fails = 0
L2_cache_bank[31]: Access = 320, Miss = 224, Miss_rate = 0.700, Pending_hits = 0, Reservation_fails = 0
L2_cache_bank[32]: Access = 520, Miss = 256, Miss_rate = 0.492, Pending_hits = 0, Reservation_fails = 0
L2_cache_bank[33]: Access = 320, Miss = 224, Miss_rate = 0.700, Pending_hits = 0, Reservation_fails = 0
L2_cache_bank[34]: Access = 538, Miss = 256, Miss_rate = 0.476, Pending_hits = 0, Reservation_fails = 0
L2_cache_bank[35]: Access = 320, Miss = 224, Miss_rate = 0.700, Pending_hits = 0, Reservation_fails = 0
L2_cache_bank[36]: Access = 544, Miss = 256, Miss_rate = 0.471, Pending_hits = 0, Reservation_fails = 0
L2_cache_bank[37]: Access = 320, Miss = 224, Miss_rate = 0.700, Pending_hits = 0, Reservation_fails = 0
L2_cache_bank[38]: Access = 547, Miss = 256, Miss_rate = 0.468, Pending_hits = 0, Reservation_fails = 0
L2_cache_bank[39]: Access = 320, Miss = 224, Miss_rate = 0.700, Pending_hits = 0, Reservation_fails = 0
L2_cache_bank[40]: Access = 547, Miss = 256, Miss_rate = 0.468, Pending_hits = 0, Reservation_fails = 0
L2_cache_bank[41]: Access = 320, Miss = 224, Miss_rate = 0.700, Pending_hits = 0, Reservation_fails = 0
L2_cache_bank[42]: Access = 550, Miss = 256, Miss_rate = 0.465, Pending_hits = 0, Reservation_fails = 0
L2_cache_bank[43]: Access = 320, Miss = 224, Miss_rate = 0.700, Pending_hits = 0, Reservation_fails = 0
L2_cache_bank[44]: Access = 550, Miss = 256, Miss_rate = 0.465, Pending_hits = 0, Reservation_fails = 0
L2_cache_bank[45]: Access = 320, Miss = 224, Miss_rate = 0.700, Pending_hits = 0, Reservation_fails = 0
L2_cache_bank[46]: Access = 550, Miss = 256, Miss_rate = 0.465, Pending_hits = 0, Reservation_fails = 0
L2_cache_bank[47]: Access = 320, Miss = 224, Miss_rate = 0.700, Pending_hits = 0, Reservation_fails = 0
L2_cache_bank[48]: Access = 463, Miss = 256, Miss_rate = 0.553, Pending_hits = 0, Reservation_fails = 0
L2_cache_bank[49]: Access = 320, Miss = 224, Miss_rate = 0.700, Pending_hits = 0, Reservation_fails = 0
L2_cache_bank[50]: Access = 463, Miss = 256, Miss_rate = 0.553, Pending_hits = 0, Reservation_fails = 0
L2_cache_bank[51]: Access = 320, Miss = 224, Miss_rate = 0.700, Pending_hits = 0, Reservation_fails = 0
L2_cache_bank[52]: Access = 463, Miss = 256, Miss_rate = 0.553, Pending_hits = 0, Reservation_fails = 0
L2_cache_bank[53]: Access = 320, Miss = 224, Miss_rate = 0.700, Pending_hits = 0, Reservation_fails = 0
L2_cache_bank[54]: Access = 463, Miss = 256, Miss_rate = 0.553, Pending_hits = 0, Reservation_fails = 0
L2_cache_bank[55]: Access = 320, Miss = 224, Miss_rate = 0.700, Pending_hits = 0, Reservation_fails = 0
L2_cache_bank[56]: Access = 463, Miss = 256, Miss_rate = 0.553, Pending_hits = 0, Reservation_fails = 0
L2_cache_bank[57]: Access = 320, Miss = 224, Miss_rate = 0.700, Pending_hits = 0, Reservation_fails = 0
L2_cache_bank[58]: Access = 475, Miss = 256, Miss_rate = 0.539, Pending_hits = 0, Reservation_fails = 0
L2_cache_bank[59]: Access = 320, Miss = 224, Miss_rate = 0.700, Pending_hits = 0, Reservation_fails = 0
L2_cache_bank[60]: Access = 475, Miss = 256, Miss_rate = 0.539, Pending_hits = 0, Reservation_fails = 0
L2_cache_bank[61]: Access = 320, Miss = 224, Miss_rate = 0.700, Pending_hits = 0, Reservation_fails = 0
L2_cache_bank[62]: Access = 484, Miss = 256, Miss_rate = 0.529, Pending_hits = 0, Reservation_fails = 0
L2_cache_bank[63]: Access = 320, Miss = 224, Miss_rate = 0.700, Pending_hits = 0, Reservation_fails = 0
L2_total_cache_accesses = 25708
L2_total_cache_misses = 15408
L2_total_cache_miss_rate = 0.5993
L2_total_cache_pending_hits = 0
L2_total_cache_reservation_fails = 0
L2_total_cache_breakdown:
	L2_cache_stats_breakdown[GLOBAL_ACC_R][HIT] = 1036
	L2_cache_stats_breakdown[GLOBAL_ACC_R][HIT_RESERVED] = 0
	L2_cache_stats_breakdown[GLOBAL_ACC_R][MISS] = 3072
	L2_cache_stats_breakdown[GLOBAL_ACC_R][RESERVATION_FAIL] = 0
	L2_cache_stats_breakdown[GLOBAL_ACC_R][SECTOR_MISS] = 9216
	L2_cache_stats_breakdown[LOCAL_ACC_R][HIT] = 0
	L2_cache_stats_breakdown[LOCAL_ACC_R][HIT_RESERVED] = 0
	L2_cache_stats_breakdown[LOCAL_ACC_R][MISS] = 0
	L2_cache_stats_breakdown[LOCAL_ACC_R][RESERVATION_FAIL] = 0
	L2_cache_stats_breakdown[LOCAL_ACC_R][SECTOR_MISS] = 0
	L2_cache_stats_breakdown[CONST_ACC_R][HIT] = 0
	L2_cache_stats_breakdown[CONST_ACC_R][HIT_RESERVED] = 0
	L2_cache_stats_breakdown[CONST_ACC_R][MISS] = 0
	L2_cache_stats_breakdown[CONST_ACC_R][RESERVATION_FAIL] = 0
	L2_cache_stats_breakdown[CONST_ACC_R][SECTOR_MISS] = 0
	L2_cache_stats_breakdown[TEXTURE_ACC_R][HIT] = 0
	L2_cache_stats_breakdown[TEXTURE_ACC_R][HIT_RESERVED] = 0
	L2_cache_stats_breakdown[TEXTURE_ACC_R][MISS] = 0
	L2_cache_stats_breakdown[TEXTURE_ACC_R][RESERVATION_FAIL] = 0
	L2_cache_stats_breakdown[TEXTURE_ACC_R][SECTOR_MISS] = 0
	L2_cache_stats_breakdown[GLOBAL_ACC_W][HIT] = 48
	L2_cache_stats_breakdown[GLOBAL_ACC_W][HIT_RESERVED] = 0
	L2_cache_stats_breakdown[GLOBAL_ACC_W][MISS] = 1
	L2_cache_stats_breakdown[GLOBAL_ACC_W][RESERVATION_FAIL] = 0
	L2_cache_stats_breakdown[GLOBAL_ACC_W][SECTOR_MISS] = 47
	L2_cache_stats_breakdown[LOCAL_ACC_W][HIT] = 9216
	L2_cache_stats_breakdown[LOCAL_ACC_W][HIT_RESERVED] = 0
	L2_cache_stats_breakdown[LOCAL_ACC_W][MISS] = 768
	L2_cache_stats_breakdown[LOCAL_ACC_W][RESERVATION_FAIL] = 0
	L2_cache_stats_breakdown[LOCAL_ACC_W][SECTOR_MISS] = 2304
	L2_cache_stats_breakdown[L1_WRBK_ACC][HIT] = 0
	L2_cache_stats_breakdown[L1_WRBK_ACC][HIT_RESERVED] = 0
	L2_cache_stats_breakdown[L1_WRBK_ACC][MISS] = 0
	L2_cache_stats_breakdown[L1_WRBK_ACC][RESERVATION_FAIL] = 0
	L2_cache_stats_breakdown[L1_WRBK_ACC][SECTOR_MISS] = 0
	L2_cache_stats_breakdown[L2_WRBK_ACC][HIT] = 0
	L2_cache_stats_breakdown[L2_WRBK_ACC][HIT_RESERVED] = 0
	L2_cache_stats_breakdown[L2_WRBK_ACC][MISS] = 0
	L2_cache_stats_breakdown[L2_WRBK_ACC][RESERVATION_FAIL] = 0
	L2_cache_stats_breakdown[L2_WRBK_ACC][SECTOR_MISS] = 0
	L2_cache_stats_breakdown[INST_ACC_R][HIT] = 0
	L2_cache_stats_breakdown[INST_ACC_R][HIT_RESERVED] = 0
	L2_cache_stats_breakdown[INST_ACC_R][MISS] = 0
	L2_cache_stats_breakdown[INST_ACC_R][RESERVATION_FAIL] = 0
	L2_cache_stats_breakdown[INST_ACC_R][SECTOR_MISS] = 0
	L2_cache_stats_breakdown[L1_WR_ALLOC_R][HIT] = 0
	L2_cache_stats_breakdown[L1_WR_ALLOC_R][HIT_RESERVED] = 0
	L2_cache_stats_breakdown[L1_WR_ALLOC_R][MISS] = 0
	L2_cache_stats_breakdown[L1_WR_ALLOC_R][RESERVATION_FAIL] = 0
	L2_cache_stats_breakdown[L1_WR_ALLOC_R][SECTOR_MISS] = 0
	L2_cache_stats_breakdown[L2_WR_ALLOC_R][HIT] = 0
	L2_cache_stats_breakdown[L2_WR_ALLOC_R][HIT_RESERVED] = 0
	L2_cache_stats_breakdown[L2_WR_ALLOC_R][MISS] = 0
	L2_cache_stats_breakdown[L2_WR_ALLOC_R][RESERVATION_FAIL] = 0
	L2_cache_stats_breakdown[L2_WR_ALLOC_R][SECTOR_MISS] = 0
	L2_cache_stats_breakdown[GLOBAL_ACC_R][TOTAL_ACCESS] = 13324
	L2_cache_stats_breakdown[GLOBAL_ACC_W][TOTAL_ACCESS] = 96
	L2_cache_stats_breakdown[LOCAL_ACC_W][TOTAL_ACCESS] = 12288
L2_total_cache_reservation_fail_breakdown:
L2_cache_data_port_util = 0.000
L2_cache_fill_port_util = 0.000

icnt_total_pkts_mem_to_simt=41068
icnt_total_pkts_simt_to_mem=41068
LD_mem_lat_dist  0 0 0 0 0 0 0 0 0 0 0 0 0 0 0 0 0 0 0 0 0 0 0 0 0 0 0
ST_mem_lat_dist  0 0 0 0 0 0 0 0 0 0 0 0 0 0 0 0 0 0 0 0 0 0 0 0 0 0 0
----------------------------Interconnect-DETAILS--------------------------------
Req_Network_injected_packets_num = 41068
Req_Network_cycles = 2717331
Req_Network_injected_packets_per_cycle =       0.0151 
Req_Network_conflicts_per_cycle =       0.0087
Req_Network_conflicts_per_cycle_util =       0.7449
Req_Bank_Level_Parallism =       1.2896
Req_Network_in_buffer_full_per_cycle =       0.0000
Req_Network_in_buffer_avg_util =       0.0109
Req_Network_out_buffer_full_per_cycle =       0.0000
Req_Network_out_buffer_avg_util =       0.0002

Reply_Network_injected_packets_num = 41068
Reply_Network_cycles = 2717331
Reply_Network_injected_packets_per_cycle =        0.0151
Reply_Network_conflicts_per_cycle =        0.0234
Reply_Network_conflicts_per_cycle_util =       2.1091
Reply_Bank_Level_Parallism =       1.3613
Reply_Network_in_buffer_full_per_cycle =       0.0000
Reply_Network_in_buffer_avg_util =       0.0013
Reply_Network_out_buffer_full_per_cycle =       0.0000
Reply_Network_out_buffer_avg_util =       0.0002
----------------------------END-of-Interconnect-DETAILS-------------------------


gpgpu_simulation_time = 0 days, 2 hrs, 41 min, 26 sec (9686 sec)
gpgpu_simulation_rate = 37388 (inst/sec)
gpgpu_simulation_rate = 280 (cycle/sec)
gpgpu_silicon_slowdown = 4042857x
GPGPU-Sim: detected inactive GPU simulation thread
GPGPU-Sim PTX: Setting up arguments for 4 bytes starting at 0x7ffd367e1a1c..
GPGPU-Sim PTX: Setting up arguments for 8 bytes starting at 0x7ffd367e1a10..
GPGPU-Sim PTX: Setting up arguments for 8 bytes starting at 0x7ffd367e1a08..
GPGPU-Sim PTX: Setting up arguments for 8 bytes starting at 0x7ffd367e1a00..
GPGPU-Sim PTX: Setting up arguments for 4 bytes starting at 0x7ffd367e1a18..

GPGPU-Sim PTX: cudaLaunch for 0x0x4123e6 (mode=performance simulation) on stream 1
GPGPU-Sim PTX: PDOM analysis already done for _Z25ethash_calculate_dag_itemjP8hash64_tmS0_j 
GPGPU-Sim PTX: pushing kernel '_Z25ethash_calculate_dag_itemjP8hash64_tmS0_j' to stream 1, gridDim= (4,1,1) blockDim = (256,1,1) 
GPGPU-Sim: synchronize waiting for inactive GPU simulation
GPGPU-Sim API: Stream Manager State
GPGPU-Sim API:    stream 1 has 1 operations
GPGPU-Sim API:       0 :  stream operation kernel
GPGPU-Sim uArch: Shader 24 bind to kernel 7 '_Z25ethash_calculate_dag_itemjP8hash64_tmS0_j'
GPGPU-Sim: Reconfigure L1 cache to 128KB
GPGPU-Sim uArch: Shader 25 bind to kernel 7 '_Z25ethash_calculate_dag_itemjP8hash64_tmS0_j'
GPGPU-Sim uArch: Shader 26 bind to kernel 7 '_Z25ethash_calculate_dag_itemjP8hash64_tmS0_j'
GPGPU-Sim uArch: Shader 27 bind to kernel 7 '_Z25ethash_calculate_dag_itemjP8hash64_tmS0_j'
