

        *** GPGPU-Sim Simulator Version 4.0.0  [build gpgpu-sim_git-commit-_modified_0.0] ***


GPGPU-Sim PTX: simulation mode 0 (can change with PTX_SIM_MODE_FUNC environment variable:
               1=functional simulation only, 0=detailed performance simulator)
GPGPU-Sim PTX: overriding embedded ptx with ptx file (PTX_SIM_USE_PTX_FILE is set)
GPGPU-Sim: Configuration options:

-save_embedded_ptx                      0 # saves ptx files embedded in binary as <n>.ptx
-keep                                   0 # keep intermediate files created by GPGPU-Sim when interfacing with external programs
-gpgpu_ptx_save_converted_ptxplus                    0 # Saved converted ptxplus to a file
-gpgpu_occupancy_sm_number                   70 # The SM number to pass to ptxas when getting register usage for computing GPU occupancy. This parameter is required in the config.
-ptx_opcode_latency_int      4,13,4,5,145,21 # Opcode latencies for integers <ADD,MAX,MUL,MAD,DIV,SHFL>Default 1,1,19,25,145,32
-ptx_opcode_latency_fp          4,13,4,5,39 # Opcode latencies for single precision floating points <ADD,MAX,MUL,MAD,DIV>Default 1,1,1,1,30
-ptx_opcode_latency_dp         8,19,8,8,330 # Opcode latencies for double precision floating points <ADD,MAX,MUL,MAD,DIV>Default 8,8,8,8,335
-ptx_opcode_latency_sfu                  100 # Opcode latencies for SFU instructionsDefault 8
-ptx_opcode_latency_tesnor                   64 # Opcode latencies for Tensor instructionsDefault 64
-ptx_opcode_initiation_int          2,2,2,2,8,4 # Opcode initiation intervals for integers <ADD,MAX,MUL,MAD,DIV,SHFL>Default 1,1,4,4,32,4
-ptx_opcode_initiation_fp            2,2,2,2,4 # Opcode initiation intervals for single precision floating points <ADD,MAX,MUL,MAD,DIV>Default 1,1,1,1,5
-ptx_opcode_initiation_dp          4,4,4,4,130 # Opcode initiation intervals for double precision floating points <ADD,MAX,MUL,MAD,DIV>Default 8,8,8,8,130
-ptx_opcode_initiation_sfu                    8 # Opcode initiation intervals for sfu instructionsDefault 8
-ptx_opcode_initiation_tensor                   64 # Opcode initiation intervals for tensor instructionsDefault 64
-cdp_latency         7200,8000,100,12000,1600 # CDP API latency <cudaStreamCreateWithFlags, cudaGetParameterBufferV2_init_perWarp, cudaGetParameterBufferV2_perKernel, cudaLaunchDeviceV2_init_perWarp, cudaLaunchDevicV2_perKernel>Default 7200,8000,100,12000,1600
-network_mode                           2 # Interconnection network mode
-inter_config_file                   mesh # Interconnection network config file
-icnt_in_buffer_limit                  512 # in_buffer_limit
-icnt_out_buffer_limit                  512 # out_buffer_limit
-icnt_subnets                           2 # subnets
-icnt_arbiter_algo                      1 # arbiter_algo
-icnt_verbose                           0 # inct_verbose
-icnt_grant_cycles                      1 # grant_cycles
-gpgpu_ptx_use_cuobjdump                    1 # Use cuobjdump to extract ptx and sass from binaries
-gpgpu_experimental_lib_support                    0 # Try to extract code from cuda libraries [Broken because of unknown cudaGetExportTable]
-checkpoint_option                      0 #  checkpointing flag (0 = no checkpoint)
-checkpoint_kernel                      1 #  checkpointing during execution of which kernel (1- 1st kernel)
-checkpoint_CTA                         0 #  checkpointing after # of CTA (< less than total CTA)
-resume_option                          0 #  resume flag (0 = no resume)
-resume_kernel                          0 #  Resume from which kernel (1= 1st kernel)
-resume_CTA                             0 #  resume from which CTA 
-checkpoint_CTA_t                       0 #  resume from which CTA 
-checkpoint_insn_Y                      0 #  resume from which CTA 
-gpgpu_ptx_convert_to_ptxplus                    0 # Convert SASS (native ISA) to ptxplus and run ptxplus
-gpgpu_ptx_force_max_capability                   70 # Force maximum compute capability
-gpgpu_ptx_inst_debug_to_file                    0 # Dump executed instructions' debug information to file
-gpgpu_ptx_inst_debug_file       inst_debug.txt # Executed instructions' debug output file
-gpgpu_ptx_inst_debug_thread_uid                    1 # Thread UID for executed instructions' debug output
-gpgpu_n_mem_for_l2wb_pcommit                   32 # number of memory modules (e.g. memory controllers) in gpu
-gpgpu_n_sub_partition_per_mchannel_for_l2wb_pcommit                    2 # number of memory subpartition in each memory module
-gpgpu_dl2_bsize_for_l2wb_pcommit                  128 # default 128 bytes
-gpgpu_simd_model                       1 # 1 = post-dominator
-gpgpu_shader_core_pipeline              2048:32 # shader core pipeline config, i.e., {<nthread>:<warpsize>}
-gpgpu_tex_cache:l1  N:4:128:256,L:R:m:N:L,T:512:8,128:2 # per-shader L1 texture cache  (READ-ONLY) config  {<nsets>:<bsize>:<assoc>,<rep>:<wr>:<alloc>:<wr_alloc>,<mshr>:<N>:<merge>,<mq>:<rf>}
-gpgpu_const_cache:l1 N:128:64:8,L:R:f:N:L,S:2:64,4 # per-shader L1 constant memory cache  (READ-ONLY) config  {<nsets>:<bsize>:<assoc>,<rep>:<wr>:<alloc>:<wr_alloc>,<mshr>:<N>:<merge>,<mq>} 
-gpgpu_cache:il1     N:64:128:16,L:R:f:N:L,S:2:48,4 # shader L1 instruction cache config  {<nsets>:<bsize>:<assoc>,<rep>:<wr>:<alloc>:<wr_alloc>,<mshr>:<N>:<merge>,<mq>} 
-gpgpu_cache:dl1     S:1:128:256,L:L:s:N:L,A:256:8,16:0,32 # per-shader L1 data cache config  {<nsets>:<bsize>:<assoc>,<rep>:<wr>:<alloc>:<wr_alloc>,<mshr>:<N>:<merge>,<mq> | none}
-gpgpu_l1_banks                         4 # The number of L1 cache banks
-gpgpu_l1_banks_byte_interleaving                   32 # l1 banks byte interleaving granularity
-gpgpu_l1_banks_hashing_function                    0 # l1 banks hashing function
-gpgpu_l1_latency                      20 # L1 Hit Latency
-gpgpu_smem_latency                    20 # smem Latency
-gpgpu_cache:dl1PrefL1                 none # per-shader L1 data cache config  {<nsets>:<bsize>:<assoc>,<rep>:<wr>:<alloc>:<wr_alloc>,<mshr>:<N>:<merge>,<mq> | none}
-gpgpu_cache:dl1PrefShared                 none # per-shader L1 data cache config  {<nsets>:<bsize>:<assoc>,<rep>:<wr>:<alloc>:<wr_alloc>,<mshr>:<N>:<merge>,<mq> | none}
-gpgpu_gmem_skip_L1D                    0 # global memory access skip L1D cache (implements -Xptxas -dlcm=cg, default=no skip)
-gpgpu_perfect_mem                      0 # enable perfect memory mode (no cache miss)
-n_regfile_gating_group                    4 # group of lanes that should be read/written together)
-gpgpu_clock_gated_reg_file                    0 # enable clock gated reg file for power calculations
-gpgpu_clock_gated_lanes                    0 # enable clock gated lanes for power calculations
-gpgpu_shader_registers                65536 # Number of registers per shader core. Limits number of concurrent CTAs. (default 8192)
-gpgpu_registers_per_block                65536 # Maximum number of registers per CTA. (default 8192)
-gpgpu_ignore_resources_limitation                    0 # gpgpu_ignore_resources_limitation (default 0)
-gpgpu_shader_cta                      32 # Maximum number of concurrent CTAs in shader (default 8)
-gpgpu_num_cta_barriers                   16 # Maximum number of named barriers per CTA (default 16)
-gpgpu_n_clusters                      80 # number of processing clusters
-gpgpu_n_cores_per_cluster                    1 # number of simd cores per cluster
-gpgpu_n_cluster_ejection_buffer_size                   32 # number of packets in ejection buffer
-gpgpu_n_ldst_response_buffer_size                    2 # number of response packets in ld/st unit ejection buffer
-gpgpu_shmem_per_block                65536 # Size of shared memory per thread block or CTA (default 48kB)
-gpgpu_shmem_size                   98304 # Size of shared memory per shader core (default 16kB)
-gpgpu_adaptive_cache_config            536870913 # adaptive_cache_config
-gpgpu_shmem_sizeDefault                98304 # Size of shared memory per shader core (default 16kB)
-gpgpu_shmem_size_PrefL1                16384 # Size of shared memory per shader core (default 16kB)
-gpgpu_shmem_size_PrefShared                16384 # Size of shared memory per shader core (default 16kB)
-gpgpu_shmem_num_banks                   32 # Number of banks in the shared memory in each shader core (default 16)
-gpgpu_shmem_limited_broadcast                    0 # Limit shared memory to do one broadcast per cycle (default on)
-gpgpu_shmem_warp_parts                    1 # Number of portions a warp is divided into for shared memory bank conflict check 
-gpgpu_mem_unit_ports                    1 # The number of memory transactions allowed per core cycle
-gpgpu_shmem_warp_parts                    1 # Number of portions a warp is divided into for shared memory bank conflict check 
-gpgpu_warpdistro_shader                   -1 # Specify which shader core to collect the warp size distribution from
-gpgpu_warp_issue_shader                    0 # Specify which shader core to collect the warp issue distribution from
-gpgpu_local_mem_map                    1 # Mapping from local memory space address to simulated GPU physical address space (default = enabled)
-gpgpu_num_reg_banks                   16 # Number of register banks (default = 8)
-gpgpu_reg_bank_use_warp_id                    0 # Use warp ID in mapping registers to banks (default = off)
-gpgpu_sub_core_model                    1 # Sub Core Volta/Pascal model (default = off)
-gpgpu_enable_specialized_operand_collector                    0 # enable_specialized_operand_collector
-gpgpu_operand_collector_num_units_sp                    4 # number of collector units (default = 4)
-gpgpu_operand_collector_num_units_dp                    0 # number of collector units (default = 0)
-gpgpu_operand_collector_num_units_sfu                    4 # number of collector units (default = 4)
-gpgpu_operand_collector_num_units_int                    0 # number of collector units (default = 0)
-gpgpu_operand_collector_num_units_tensor_core                    4 # number of collector units (default = 4)
-gpgpu_operand_collector_num_units_mem                    2 # number of collector units (default = 2)
-gpgpu_operand_collector_num_units_gen                    8 # number of collector units (default = 0)
-gpgpu_operand_collector_num_in_ports_sp                    1 # number of collector unit in ports (default = 1)
-gpgpu_operand_collector_num_in_ports_dp                    0 # number of collector unit in ports (default = 0)
-gpgpu_operand_collector_num_in_ports_sfu                    1 # number of collector unit in ports (default = 1)
-gpgpu_operand_collector_num_in_ports_int                    0 # number of collector unit in ports (default = 0)
-gpgpu_operand_collector_num_in_ports_tensor_core                    1 # number of collector unit in ports (default = 1)
-gpgpu_operand_collector_num_in_ports_mem                    1 # number of collector unit in ports (default = 1)
-gpgpu_operand_collector_num_in_ports_gen                    8 # number of collector unit in ports (default = 0)
-gpgpu_operand_collector_num_out_ports_sp                    1 # number of collector unit in ports (default = 1)
-gpgpu_operand_collector_num_out_ports_dp                    0 # number of collector unit in ports (default = 0)
-gpgpu_operand_collector_num_out_ports_sfu                    1 # number of collector unit in ports (default = 1)
-gpgpu_operand_collector_num_out_ports_int                    0 # number of collector unit in ports (default = 0)
-gpgpu_operand_collector_num_out_ports_tensor_core                    1 # number of collector unit in ports (default = 1)
-gpgpu_operand_collector_num_out_ports_mem                    1 # number of collector unit in ports (default = 1)
-gpgpu_operand_collector_num_out_ports_gen                    8 # number of collector unit in ports (default = 0)
-gpgpu_coalesce_arch                   60 # Coalescing arch (GT200 = 13, Fermi = 20)
-gpgpu_num_sched_per_core                    4 # Number of warp schedulers per core
-gpgpu_max_insn_issue_per_warp                    1 # Max number of instructions that can be issued per warp in one cycle by scheduler (either 1 or 2)
-gpgpu_dual_issue_diff_exec_units                    1 # should dual issue use two different execution unit resources (Default = 1)
-gpgpu_simt_core_sim_order                    1 # Select the simulation order of cores in a cluster (0=Fix, 1=Round-Robin)
-gpgpu_pipeline_widths 4,4,4,4,4,4,4,4,4,4,8,4,4 # Pipeline widths ID_OC_SP,ID_OC_DP,ID_OC_INT,ID_OC_SFU,ID_OC_MEM,OC_EX_SP,OC_EX_DP,OC_EX_INT,OC_EX_SFU,OC_EX_MEM,EX_WB,ID_OC_TENSOR_CORE,OC_EX_TENSOR_CORE
-gpgpu_tensor_core_avail                    1 # Tensor Core Available (default=0)
-gpgpu_num_sp_units                     4 # Number of SP units (default=1)
-gpgpu_num_dp_units                     4 # Number of DP units (default=0)
-gpgpu_num_int_units                    4 # Number of INT units (default=0)
-gpgpu_num_sfu_units                    4 # Number of SF units (default=1)
-gpgpu_num_tensor_core_units                    4 # Number of tensor_core units (default=1)
-gpgpu_num_mem_units                    1 # Number if ldst units (default=1) WARNING: not hooked up to anything
-gpgpu_scheduler                      gto # Scheduler configuration: < lrr | gto | two_level_active > If two_level_active:<num_active_warps>:<inner_prioritization>:<outer_prioritization>For complete list of prioritization values see shader.h enum scheduler_prioritization_typeDefault: gto
-gpgpu_concurrent_kernel_sm                    0 # Support concurrent kernels on a SM (default = disabled)
-gpgpu_perfect_inst_const_cache                    1 # perfect inst and const cache mode, so all inst and const hits in the cache(default = disabled)
-gpgpu_inst_fetch_throughput                    4 # the number of fetched intruction per warp each cycle
-gpgpu_reg_file_port_throughput                    2 # the number ports of the register file
-specialized_unit_1         0,4,4,4,4,BRA # specialized unit config {<enabled>,<num_units>:<latency>:<initiation>,<ID_OC_SPEC>:<OC_EX_SPEC>,<NAME>}
-specialized_unit_2         0,4,4,4,4,BRA # specialized unit config {<enabled>,<num_units>:<latency>:<initiation>,<ID_OC_SPEC>:<OC_EX_SPEC>,<NAME>}
-specialized_unit_3         0,4,4,4,4,BRA # specialized unit config {<enabled>,<num_units>:<latency>:<initiation>,<ID_OC_SPEC>:<OC_EX_SPEC>,<NAME>}
-specialized_unit_4         0,4,4,4,4,BRA # specialized unit config {<enabled>,<num_units>:<latency>:<initiation>,<ID_OC_SPEC>:<OC_EX_SPEC>,<NAME>}
-specialized_unit_5         0,4,4,4,4,BRA # specialized unit config {<enabled>,<num_units>:<latency>:<initiation>,<ID_OC_SPEC>:<OC_EX_SPEC>,<NAME>}
-specialized_unit_6         0,4,4,4,4,BRA # specialized unit config {<enabled>,<num_units>:<latency>:<initiation>,<ID_OC_SPEC>:<OC_EX_SPEC>,<NAME>}
-specialized_unit_7         0,4,4,4,4,BRA # specialized unit config {<enabled>,<num_units>:<latency>:<initiation>,<ID_OC_SPEC>:<OC_EX_SPEC>,<NAME>}
-specialized_unit_8         0,4,4,4,4,BRA # specialized unit config {<enabled>,<num_units>:<latency>:<initiation>,<ID_OC_SPEC>:<OC_EX_SPEC>,<NAME>}
-gpgpu_perf_sim_memcpy                    1 # Fill the L2 cache on memcpy
-gpgpu_simple_dram_model                    0 # simple_dram_model with fixed latency and BW
-gpgpu_dram_scheduler                    1 # 0 = fifo, 1 = FR-FCFS (defaul)
-gpgpu_dram_partition_queues          64:64:64:64 # i2$:$2d:d2$:$2i
-l2_ideal                               0 # Use a ideal L2 cache that always hit
-gpgpu_cache:dl2     S:32:128:24,L:B:m:L:P,A:192:4,32:0,32 # unified banked L2 data cache config  {<nsets>:<bsize>:<assoc>,<rep>:<wr>:<alloc>:<wr_alloc>,<mshr>:<N>:<merge>,<mq>}
-gpgpu_cache:dl2_texture_only                    0 # L2 cache used for texture only
-gpgpu_n_mem                           32 # number of memory modules (e.g. memory controllers) in gpu
-gpgpu_n_sub_partition_per_mchannel                    2 # number of memory subpartition in each memory module
-gpgpu_n_mem_per_ctrlr                    1 # number of memory chips per memory controller
-gpgpu_memlatency_stat                   14 # track and display latency statistics 0x2 enables MC, 0x4 enables queue logs
-gpgpu_frfcfs_dram_sched_queue_size                   64 # 0 = unlimited (default); # entries per chip
-gpgpu_dram_return_queue_size                  192 # 0 = unlimited (default); # entries per chip
-gpgpu_dram_buswidth                   16 # default = 4 bytes (8 bytes per cycle at DDR)
-gpgpu_dram_burst_length                    2 # Burst length of each DRAM request (default = 4 data bus cycle)
-dram_data_command_freq_ratio                    2 # Frequency ratio between DRAM data bus and command bus (default = 2 times, i.e. DDR)
-gpgpu_dram_timing_opt nbk=16:CCD=1:RRD=3:RCD=12:RAS=28:RP=12:RC=40: CL=12:WL=2:CDLR=3:WR=10:nbkgrp=4:CCDL=2:RTPL=3 # DRAM timing parameters = {nbk:tCCD:tRRD:tRCD:tRAS:tRP:tRC:CL:WL:tCDLR:tWR:nbkgrp:tCCDL:tRTPL}
-gpgpu_l2_rop_latency                  160 # ROP queue latency (default 85)
-dram_latency                         200 # DRAM latency (default 30)
-dram_write_latency                   600 # DRAM write latency (default 100)
-dram_dual_bus_interface                    1 # dual_bus_interface (default = 0) 
-dram_bnk_indexing_policy                    0 # dram_bnk_indexing_policy (0 = normal indexing, 1 = Xoring with the higher bits) (Default = 0)
-dram_bnkgrp_indexing_policy                    1 # dram_bnkgrp_indexing_policy (0 = take higher bits, 1 = take lower bits) (Default = 0)
-dram_seperate_write_queue_enable                    0 # Seperate_Write_Queue_Enable
-dram_write_queue_size             32:28:16 # Write_Queue_Size
-dram_elimnate_rw_turnaround                    0 # elimnate_rw_turnaround i.e set tWTR and tRTW = 0
-icnt_flit_size                        40 # icnt_flit_size
-gpgpu_mem_addr_mapping dramid@8;00000000.00000000.00000000.00000000.0000RRRR.RRRRRRRR.RBBBCCCB.CCCSSSSS # mapping memory address to dram model {dramid@<start bit>;<memory address map>}
-gpgpu_mem_addr_test                    0 # run sweep test to check address mapping for aliased address
-gpgpu_mem_address_mask                    1 # 0 = old addressing mask, 1 = new addressing mask, 2 = new add. mask + flipped bank sel and chip sel bits
-gpgpu_memory_partition_indexing                    0 # 0 = no indexing, 1 = bitwise xoring, 2 = IPoly, 3 = custom indexing
-gpuwattch_xml_file         gpuwattch.xml # GPUWattch XML file
-power_simulation_enabled                    0 # Turn on power simulator (1=On, 0=Off)
-power_per_cycle_dump                    0 # Dump detailed power output each cycle
-power_trace_enabled                    0 # produce a file for the power trace (1=On, 0=Off)
-power_trace_zlevel                     6 # Compression level of the power trace output log (0=no comp, 9=highest)
-steady_power_levels_enabled                    0 # produce a file for the steady power levels (1=On, 0=Off)
-steady_state_definition                  8:4 # allowed deviation:number of samples
-gpgpu_max_cycle                        0 # terminates gpu simulation early (0 = no limit)
-gpgpu_max_insn                         0 # terminates gpu simulation early (0 = no limit)
-gpgpu_max_cta                          0 # terminates gpu simulation early (0 = no limit)
-gpgpu_max_completed_cta                    0 # terminates gpu simulation early (0 = no limit)
-gpgpu_runtime_stat                   500 # display runtime statistics such as dram utilization {<freq>:<flag>}
-liveness_message_freq                    1 # Minimum number of seconds between simulation liveness messages (0 = always print)
-gpgpu_compute_capability_major                    7 # Major compute capability version number
-gpgpu_compute_capability_minor                    0 # Minor compute capability version number
-gpgpu_flush_l1_cache                    1 # Flush L1 cache at the end of each kernel call
-gpgpu_flush_l2_cache                    0 # Flush L2 cache at the end of each kernel call
-gpgpu_deadlock_detect                    1 # Stop the simulation at deadlock (1=on (default), 0=off)
-gpgpu_ptx_instruction_classification                    0 # if enabled will classify ptx instruction types per kernel (Max 255 kernels now)
-gpgpu_ptx_sim_mode                     0 # Select between Performance (default) or Functional simulation (1)
-gpgpu_clock_domains 1132.0:1132.0:1132.0:850.0 # Clock Domain Frequencies in MhZ {<Core Clock>:<ICNT Clock>:<L2 Clock>:<DRAM Clock>}
-gpgpu_max_concurrent_kernel                    8 # maximum kernels that can run concurrently on GPU
-gpgpu_cflog_interval                    0 # Interval between each snapshot in control flow logger
-visualizer_enabled               a89ae6a2f6217ce426980a959c61b9bf  /home/pli11/Desktop/re_test/megakv/search/run
Extracting PTX file and ptxas options    1: run.1.sm_70.ptx -arch=sm_70
      0 # Turn on visualizer output (1=On, 0=Off)
-visualizer_outputfile                 NULL # Specifies the output log file for visualizer
-visualizer_zlevel                      6 # Compression level of the visualizer output log (0=no comp, 9=highest)
-gpgpu_stack_size_limit                 1024 # GPU thread stack size
-gpgpu_heap_size_limit              8388608 # GPU malloc heap size 
-gpgpu_runtime_sync_depth_limit                    2 # GPU device runtime synchronize depth
-gpgpu_runtime_pending_launch_count_limit                 2048 # GPU device runtime pending launch count
-trace_enabled                          0 # Turn on traces
-trace_components                    none # comma seperated list of traces to enable. Complete list found in trace_streams.tup. Default none
-trace_sampling_core                    0 # The core which is printed using CORE_DPRINTF. Default 0
-trace_sampling_memory_partition                   -1 # The memory partition which is printed using MEMPART_DPRINTF. Default -1 (i.e. all)
-enable_ptx_file_line_stats                    1 # Turn on PTX source line statistic profiling. (1 = On)
-ptx_line_stats_filename gpgpu_inst_stats.txt # Output file for PTX source line statistics.
-gpgpu_kernel_launch_latency                 5000 # Kernel launch latency in cycles. Default: 0
-gpgpu_cdp_enabled                      0 # Turn on CDP
-gpgpu_TB_launch_latency                    0 # thread block launch latency in cycles. Default: 0
DRAM Timing Options:
nbk                                    16 # number of banks
CCD                                     1 # column to column delay
RRD                                     3 # minimal delay between activation of rows in different banks
RCD                                    12 # row to column delay
RAS                                    28 # time needed to activate row
RP                                     12 # time needed to precharge (deactivate) row
RC                                     40 # row cycle time
CDLR                                    3 # switching from write to read (changes tWTR)
WR                                     10 # last data-in to row precharge
CL                                     12 # CAS latency
WL                                      2 # Write latency
nbkgrp                                  4 # number of bank groups
CCDL                                    2 # column to column delay between accesses to different bank groups
RTPL                                    3 # read to precharge delay between accesses to different bank groups
Total number of memory sub partition = 64
addr_dec_mask[CHIP]  = 0000000000001f00 	high:13 low:8
addr_dec_mask[BK]    = 00000000000e2000 	high:20 low:13
addr_dec_mask[ROW]   = 00000001fff00000 	high:33 low:20
addr_dec_mask[COL]   = 000000000001c0ff 	high:17 low:0
addr_dec_mask[BURST] = 000000000000001f 	high:5 low:0
sub_partition_id_mask = 0000000000002000
GPGPU-Sim uArch: clock freqs: 1132000000.000000:1132000000.000000:1132000000.000000:850000000.000000
GPGPU-Sim uArch: clock periods: 0.00000000088339222615:0.00000000088339222615:0.00000000088339222615:0.00000000117647058824
*** Initializing Memory Statistics ***
GPGPU-Sim uArch: performance model initialization complete.
self exe links to: /home/pli11/Desktop/re_test/megakv/search/run
self exe links to: /home/pli11/Desktop/re_test/megakv/search/run
10.1
GPGPU-Sim PTX: __cudaRegisterFatBinary, fat_cubin_handle = 1, filename=default
self exe links to: /home/pli11/Desktop/re_test/megakv/search/run
Running md5sum using "md5sum /home/pli11/Desktop/re_test/megakv/search/run "
self exe links to: /home/pli11/Desktop/re_test/megakv/search/run
Extracting specific PTX file named run.1.sm_70.ptx 
GPGPU-Sim PTX: __cudaRegisterFunction _Z11hash_searchP7selem_sPjP8bucket_sii : hostFun 0x0x40277b, fat_cubin_handle = 1
GPGPU-Sim PTX: Parsing run.1.sm_70.ptx
GPGPU-Sim PTX: instruction assembly for function '_Z16hash_search_nvmbP7selem_sPjP8bucket_sii'...   done.
GPGPU-Sim PTX: instruction assembly for function '_Z16hash_search_nvmoP7selem_sPjP8bucket_sii'...   done.
GPGPU-Sim PTX: instruction assembly for function '_Z16hash_search_nvmuP7selem_sPjP8bucket_sii'...   done.
GPGPU-Sim PTX: instruction assembly for function '_Z11kernel_l2wbv'...   done.
GPGPU-Sim PTX: instruction assembly for function '_Z15kernel_l2wb_pctv'...   done.
GPGPU-Sim PTX: instruction assembly for function '_Z11hash_searchP7selem_sPjP8bucket_sii'...   done.
GPGPU-Sim PTX: finished parsing EMBEDDED .ptx file run.1.sm_70.ptx
GPGPU-Sim PTX: loading globals with explicit initializers... 
GPGPU-Sim PTX: finished loading globals (0 bytes total).
GPGPU-Sim PTX: loading constants with explicit initializers...  done.
GPGPU-Sim PTX: Loading PTXInfo from run.1.sm_70.ptx
GPGPU-Sim PTX: Kernel '_Z11hash_searchP7selem_sPjP8bucket_sii' : regs=12, lmem=0, smem=0, cmem=384
GPGPU-Sim PTX: Kernel '_Z15kernel_l2wb_pctv' : regs=8, lmem=0, smem=0, cmem=352
GPGPU-Sim PTX: Kernel '_Z11kernel_l2wbv' : regs=8, lmem=0, smem=0, cmem=352
GPGPU-Sim PTX: Kernel '_Z16hash_search_nvmuP7selem_sPjP8bucket_sii' : regs=12, lmem=0, smem=0, cmem=384
GPGPU-Sim PTX: Kernel '_Z16hash_search_nvmoP7selem_sPjP8bucket_sii' : regs=12, lmem=0, smem=0, cmem=384
GPGPU-Sim PTX: Kernel '_Z16hash_search_nvmbP7selem_sPjP8bucket_sii' : regs=16, lmem=0, smem=0, cmem=384
GPGPU-Sim PTX: __cudaRegisterFunction _Z15kernel_l2wb_pctv : hostFun 0x0x402611, fat_cubin_handle = 1
GPGPU-Sim PTX: __cudaRegisterFunction _Z11kernel_l2wbv : hostFun 0x0x402517, fat_cubin_handle = 1
GPGPU-Sim PTX: __cudaRegisterFunction _Z16hash_search_nvmuP7selem_sPjP8bucket_sii : hostFun 0x0x4023ee, fat_cubin_handle = 1
GPGPU-Sim PTX: __cudaRegisterFunction _Z16hash_search_nvmoP7selem_sPjP8bucket_sii : hostFun 0x0x402255, fat_cubin_handle = 1
GPGPU-Sim PTX: __cudaRegisterFunction _Z16hash_search_nvmbP7selem_sPjP8bucket_sii : hostFun 0x0x4020bc, fat_cubin_handle = 1
GPGPU-Sim PTX: cudaStreamCreate
GPGPU-Sim: synchronize waiting for inactive GPU simulation
GPGPU-Sim API: Stream Manager State
GPGPU-Sim API:    stream 1 has 2 operations
GPGPU-Sim API:       0 :  stream operation memcpy host-to-device
GPGPU-Sim API:       1 :  stream operation memcpy device-to-host
GPGPU-Sim: detected inactive GPU simulation thread
GPGPU-Sim: synchronize waiting for inactive GPU simulation
GPGPU-Sim API: Stream Manager State
GPGPU-Sim API:    stream 1 has 1 operations
GPGPU-Sim API:       0 :  stream operation memcpy host-to-device
GPGPU-Sim: detected inactive GPU simulation thread
GPGPU-Sim PTX: Setting up arguments for 8 bytes starting at 0x7ffc137ca1f8..
GPGPU-Sim PTX: Setting up arguments for 8 bytes starting at 0x7ffc137ca1f0..
GPGPU-Sim PTX: Setting up arguments for 8 bytes starting at 0x7ffc137ca1e8..
GPGPU-Sim PTX: Setting up arguments for 4 bytes starting at 0x7ffc137ca1e4..
GPGPU-Sim PTX: Setting up arguments for 4 bytes starting at 0x7ffc137ca1e0..

GPGPU-Sim PTX: cudaLaunch for 0x0x4020bc (mode=performance simulation) on stream 1
GPGPU-Sim PTX: finding reconvergence points for '_Z16hash_search_nvmbP7selem_sPjP8bucket_sii'...
GPGPU-Sim PTX: Finding dominators for '_Z16hash_search_nvmbP7selem_sPjP8bucket_sii'...
GPGPU-Sim PTX: Finding immediate dominators for '_Z16hash_search_nvmbP7selem_sPjP8bucket_sii'...
GPGPU-Sim PTX: Finding postdominators for '_Z16hash_search_nvmbP7selem_sPjP8bucket_sii'...
GPGPU-Sim PTX: Finding immediate postdominators for '_Z16hash_search_nvmbP7selem_sPjP8bucket_sii'...
GPGPU-Sim PTX: pre-decoding instructions for '_Z16hash_search_nvmbP7selem_sPjP8bucket_sii'...
GPGPU-Sim PTX: reconvergence points for _Z16hash_search_nvmbP7selem_sPjP8bucket_sii...
GPGPU-Sim PTX:  1 (potential) branch divergence @  PC=0x060 (run.1.sm_70.ptx:40) @%p1 bra BB0_7;
GPGPU-Sim PTX:    immediate post dominator      @  PC=0x1f8 (run.1.sm_70.ptx:110) ret;
GPGPU-Sim PTX:  2 (potential) branch divergence @  PC=0x0e8 (run.1.sm_70.ptx:60) @%p2 bra BB0_4;
GPGPU-Sim PTX:    immediate post dominator      @  PC=0x130 (run.1.sm_70.ptx:76) setp.eq.s32%p3, %r36, %r35;
GPGPU-Sim PTX:  3 (potential) branch divergence @  PC=0x1a0 (run.1.sm_70.ptx:90) @%p5 bra BB0_6;
GPGPU-Sim PTX:    immediate post dominator      @  PC=0x1e0 (run.1.sm_70.ptx:105) add.s32 %r34, %r34, %r3;
GPGPU-Sim PTX:  4 (potential) branch divergence @  PC=0x1f0 (run.1.sm_70.ptx:107) @%p6 bra BB0_2;
GPGPU-Sim PTX:    immediate post dominator      @  PC=0x1f8 (run.1.sm_70.ptx:110) ret;
GPGPU-Sim PTX: ... end of reconvergence points for _Z16hash_search_nvmbP7selem_sPjP8bucket_sii
GPGPU-Sim PTX: ... done pre-decoding instructions for '_Z16hash_search_nvmbP7selem_sPjP8bucket_sii'.
GPGPU-Sim PTX: pushing kernel '_Z16hash_search_nvmbP7selem_sPjP8bucket_sii' to stream 1, gridDim= (8,1,1) blockDim = (1024,1,1) 
GPGPU-Sim: synchronize waiting for inactive GPU simulation
GPGPU-Sim API: Stream Manager State
GPGPU-Sim API:    stream 1 has 1 operations
GPGPU-Sim API:       0 :  stream operation kernel
GPGPU-Sim uArch: Shader 0 bind to kernel 1 '_Z16hash_search_nvmbP7selem_sPjP8bucket_sii'
GPGPU-Sim uArch: CTA/core = 2, limited by: threads
GPGPU-Sim: Reconfigure L1 cache to 128KB
GPGPU-Sim uArch: Shader 1 bind to kernel 1 '_Z16hash_search_nvmbP7selem_sPjP8bucket_sii'
GPGPU-Sim uArch: Shader 2 bind to kernel 1 '_Z16hash_search_nvmbP7selem_sPjP8bucket_sii'
GPGPU-Sim uArch: Shader 3 bind to kernel 1 '_Z16hash_search_nvmbP7selem_sPjP8bucket_sii'
GPGPU-Sim uArch: Shader 4 bind to kernel 1 '_Z16hash_search_nvmbP7selem_sPjP8bucket_sii'
GPGPU-Sim uArch: Shader 5 bind to kernel 1 '_Z16hash_search_nvmbP7selem_sPjP8bucket_sii'
GPGPU-Sim uArch: Shader 6 bind to kernel 1 '_Z16hash_search_nvmbP7selem_sPjP8bucket_sii'
GPGPU-Sim uArch: Shader 7 bind to kernel 1 '_Z16hash_search_nvmbP7selem_sPjP8bucket_sii'
Destroy streams for kernel 1: size 0
kernel_name = _Z16hash_search_nvmbP7selem_sPjP8bucket_sii 
kernel_launch_uid = 1 
gpu_sim_cycle = 282053
gpu_sim_insn = 17235968
gpu_ipc =      61.1090
gpu_tot_sim_cycle = 282053
gpu_tot_sim_insn = 17235968
gpu_tot_ipc =      61.1090
gpu_tot_issued_cta = 8
gpu_occupancy = 49.0492% 
gpu_tot_occupancy = 49.0492% 
max_total_param_size = 0
gpu_stall_dramfull = 0
gpu_stall_icnt2sh    = 0
partiton_level_parallism =       1.4391
partiton_level_parallism_total  =       1.4391
partiton_level_parallism_util =       2.0859
partiton_level_parallism_util_total  =       2.0859
L2_BW  =      52.1303 GB/Sec
L2_BW_total  =      52.1303 GB/Sec
gpu_total_sim_rate=23741

========= Core cache stats =========
L1I_cache:
	L1I_total_cache_accesses = 0
	L1I_total_cache_misses = 0
	L1I_total_cache_pending_hits = 0
	L1I_total_cache_reservation_fails = 0
L1D_cache:
	L1D_cache_core[0]: Access = 55296, Miss = 51471, Miss_rate = 0.931, Pending_hits = 0, Reservation_fails = 0
	L1D_cache_core[1]: Access = 55296, Miss = 51522, Miss_rate = 0.932, Pending_hits = 0, Reservation_fails = 0
	L1D_cache_core[2]: Access = 55296, Miss = 51473, Miss_rate = 0.931, Pending_hits = 0, Reservation_fails = 0
	L1D_cache_core[3]: Access = 55296, Miss = 51376, Miss_rate = 0.929, Pending_hits = 0, Reservation_fails = 0
	L1D_cache_core[4]: Access = 55296, Miss = 51520, Miss_rate = 0.932, Pending_hits = 0, Reservation_fails = 0
	L1D_cache_core[5]: Access = 55296, Miss = 51361, Miss_rate = 0.929, Pending_hits = 0, Reservation_fails = 0
	L1D_cache_core[6]: Access = 55296, Miss = 51566, Miss_rate = 0.933, Pending_hits = 0, Reservation_fails = 0
	L1D_cache_core[7]: Access = 55296, Miss = 51411, Miss_rate = 0.930, Pending_hits = 0, Reservation_fails = 0
	L1D_cache_core[8]: Access = 0, Miss = 0, Miss_rate = -nan, Pending_hits = 0, Reservation_fails = 0
	L1D_cache_core[9]: Access = 0, Miss = 0, Miss_rate = -nan, Pending_hits = 0, Reservation_fails = 0
	L1D_cache_core[10]: Access = 0, Miss = 0, Miss_rate = -nan, Pending_hits = 0, Reservation_fails = 0
	L1D_cache_core[11]: Access = 0, Miss = 0, Miss_rate = -nan, Pending_hits = 0, Reservation_fails = 0
	L1D_cache_core[12]: Access = 0, Miss = 0, Miss_rate = -nan, Pending_hits = 0, Reservation_fails = 0
	L1D_cache_core[13]: Access = 0, Miss = 0, Miss_rate = -nan, Pending_hits = 0, Reservation_fails = 0
	L1D_cache_core[14]: Access = 0, Miss = 0, Miss_rate = -nan, Pending_hits = 0, Reservation_fails = 0
	L1D_cache_core[15]: Access = 0, Miss = 0, Miss_rate = -nan, Pending_hits = 0, Reservation_fails = 0
	L1D_cache_core[16]: Access = 0, Miss = 0, Miss_rate = -nan, Pending_hits = 0, Reservation_fails = 0
	L1D_cache_core[17]: Access = 0, Miss = 0, Miss_rate = -nan, Pending_hits = 0, Reservation_fails = 0
	L1D_cache_core[18]: Access = 0, Miss = 0, Miss_rate = -nan, Pending_hits = 0, Reservation_fails = 0
	L1D_cache_core[19]: Access = 0, Miss = 0, Miss_rate = -nan, Pending_hits = 0, Reservation_fails = 0
	L1D_cache_core[20]: Access = 0, Miss = 0, Miss_rate = -nan, Pending_hits = 0, Reservation_fails = 0
	L1D_cache_core[21]: Access = 0, Miss = 0, Miss_rate = -nan, Pending_hits = 0, Reservation_fails = 0
	L1D_cache_core[22]: Access = 0, Miss = 0, Miss_rate = -nan, Pending_hits = 0, Reservation_fails = 0
	L1D_cache_core[23]: Access = 0, Miss = 0, Miss_rate = -nan, Pending_hits = 0, Reservation_fails = 0
	L1D_cache_core[24]: Access = 0, Miss = 0, Miss_rate = -nan, Pending_hits = 0, Reservation_fails = 0
	L1D_cache_core[25]: Access = 0, Miss = 0, Miss_rate = -nan, Pending_hits = 0, Reservation_fails = 0
	L1D_cache_core[26]: Access = 0, Miss = 0, Miss_rate = -nan, Pending_hits = 0, Reservation_fails = 0
	L1D_cache_core[27]: Access = 0, Miss = 0, Miss_rate = -nan, Pending_hits = 0, Reservation_fails = 0
	L1D_cache_core[28]: Access = 0, Miss = 0, Miss_rate = -nan, Pending_hits = 0, Reservation_fails = 0
	L1D_cache_core[29]: Access = 0, Miss = 0, Miss_rate = -nan, Pending_hits = 0, Reservation_fails = 0
	L1D_cache_core[30]: Access = 0, Miss = 0, Miss_rate = -nan, Pending_hits = 0, Reservation_fails = 0
	L1D_cache_core[31]: Access = 0, Miss = 0, Miss_rate = -nan, Pending_hits = 0, Reservation_fails = 0
	L1D_cache_core[32]: Access = 0, Miss = 0, Miss_rate = -nan, Pending_hits = 0, Reservation_fails = 0
	L1D_cache_core[33]: Access = 0, Miss = 0, Miss_rate = -nan, Pending_hits = 0, Reservation_fails = 0
	L1D_cache_core[34]: Access = 0, Miss = 0, Miss_rate = -nan, Pending_hits = 0, Reservation_fails = 0
	L1D_cache_core[35]: Access = 0, Miss = 0, Miss_rate = -nan, Pending_hits = 0, Reservation_fails = 0
	L1D_cache_core[36]: Access = 0, Miss = 0, Miss_rate = -nan, Pending_hits = 0, Reservation_fails = 0
	L1D_cache_core[37]: Access = 0, Miss = 0, Miss_rate = -nan, Pending_hits = 0, Reservation_fails = 0
	L1D_cache_core[38]: Access = 0, Miss = 0, Miss_rate = -nan, Pending_hits = 0, Reservation_fails = 0
	L1D_cache_core[39]: Access = 0, Miss = 0, Miss_rate = -nan, Pending_hits = 0, Reservation_fails = 0
	L1D_cache_core[40]: Access = 0, Miss = 0, Miss_rate = -nan, Pending_hits = 0, Reservation_fails = 0
	L1D_cache_core[41]: Access = 0, Miss = 0, Miss_rate = -nan, Pending_hits = 0, Reservation_fails = 0
	L1D_cache_core[42]: Access = 0, Miss = 0, Miss_rate = -nan, Pending_hits = 0, Reservation_fails = 0
	L1D_cache_core[43]: Access = 0, Miss = 0, Miss_rate = -nan, Pending_hits = 0, Reservation_fails = 0
	L1D_cache_core[44]: Access = 0, Miss = 0, Miss_rate = -nan, Pending_hits = 0, Reservation_fails = 0
	L1D_cache_core[45]: Access = 0, Miss = 0, Miss_rate = -nan, Pending_hits = 0, Reservation_fails = 0
	L1D_cache_core[46]: Access = 0, Miss = 0, Miss_rate = -nan, Pending_hits = 0, Reservation_fails = 0
	L1D_cache_core[47]: Access = 0, Miss = 0, Miss_rate = -nan, Pending_hits = 0, Reservation_fails = 0
	L1D_cache_core[48]: Access = 0, Miss = 0, Miss_rate = -nan, Pending_hits = 0, Reservation_fails = 0
	L1D_cache_core[49]: Access = 0, Miss = 0, Miss_rate = -nan, Pending_hits = 0, Reservation_fails = 0
	L1D_cache_core[50]: Access = 0, Miss = 0, Miss_rate = -nan, Pending_hits = 0, Reservation_fails = 0
	L1D_cache_core[51]: Access = 0, Miss = 0, Miss_rate = -nan, Pending_hits = 0, Reservation_fails = 0
	L1D_cache_core[52]: Access = 0, Miss = 0, Miss_rate = -nan, Pending_hits = 0, Reservation_fails = 0
	L1D_cache_core[53]: Access = 0, Miss = 0, Miss_rate = -nan, Pending_hits = 0, Reservation_fails = 0
	L1D_cache_core[54]: Access = 0, Miss = 0, Miss_rate = -nan, Pending_hits = 0, Reservation_fails = 0
	L1D_cache_core[55]: Access = 0, Miss = 0, Miss_rate = -nan, Pending_hits = 0, Reservation_fails = 0
	L1D_cache_core[56]: Access = 0, Miss = 0, Miss_rate = -nan, Pending_hits = 0, Reservation_fails = 0
	L1D_cache_core[57]: Access = 0, Miss = 0, Miss_rate = -nan, Pending_hits = 0, Reservation_fails = 0
	L1D_cache_core[58]: Access = 0, Miss = 0, Miss_rate = -nan, Pending_hits = 0, Reservation_fails = 0
	L1D_cache_core[59]: Access = 0, Miss = 0, Miss_rate = -nan, Pending_hits = 0, Reservation_fails = 0
	L1D_cache_core[60]: Access = 0, Miss = 0, Miss_rate = -nan, Pending_hits = 0, Reservation_fails = 0
	L1D_cache_core[61]: Access = 0, Miss = 0, Miss_rate = -nan, Pending_hits = 0, Reservation_fails = 0
	L1D_cache_core[62]: Access = 0, Miss = 0, Miss_rate = -nan, Pending_hits = 0, Reservation_fails = 0
	L1D_cache_core[63]: Access = 0, Miss = 0, Miss_rate = -nan, Pending_hits = 0, Reservation_fails = 0
	L1D_cache_core[64]: Access = 0, Miss = 0, Miss_rate = -nan, Pending_hits = 0, Reservation_fails = 0
	L1D_cache_core[65]: Access = 0, Miss = 0, Miss_rate = -nan, Pending_hits = 0, Reservation_fails = 0
	L1D_cache_core[66]: Access = 0, Miss = 0, Miss_rate = -nan, Pending_hits = 0, Reservation_fails = 0
	L1D_cache_core[67]: Access = 0, Miss = 0, Miss_rate = -nan, Pending_hits = 0, Reservation_fails = 0
	L1D_cache_core[68]: Access = 0, Miss = 0, Miss_rate = -nan, Pending_hits = 0, Reservation_fails = 0
	L1D_cache_core[69]: Access = 0, Miss = 0, Miss_rate = -nan, Pending_hits = 0, Reservation_fails = 0
	L1D_cache_core[70]: Access = 0, Miss = 0, Miss_rate = -nan, Pending_hits = 0, Reservation_fails = 0
	L1D_cache_core[71]: Access = 0, Miss = 0, Miss_rate = -nan, Pending_hits = 0, Reservation_fails = 0
	L1D_cache_core[72]: Access = 0, Miss = 0, Miss_rate = -nan, Pending_hits = 0, Reservation_fails = 0
	L1D_cache_core[73]: Access = 0, Miss = 0, Miss_rate = -nan, Pending_hits = 0, Reservation_fails = 0
	L1D_cache_core[74]: Access = 0, Miss = 0, Miss_rate = -nan, Pending_hits = 0, Reservation_fails = 0
	L1D_cache_core[75]: Access = 0, Miss = 0, Miss_rate = -nan, Pending_hits = 0, Reservation_fails = 0
	L1D_cache_core[76]: Access = 0, Miss = 0, Miss_rate = -nan, Pending_hits = 0, Reservation_fails = 0
	L1D_cache_core[77]: Access = 0, Miss = 0, Miss_rate = -nan, Pending_hits = 0, Reservation_fails = 0
	L1D_cache_core[78]: Access = 0, Miss = 0, Miss_rate = -nan, Pending_hits = 0, Reservation_fails = 0
	L1D_cache_core[79]: Access = 0, Miss = 0, Miss_rate = -nan, Pending_hits = 0, Reservation_fails = 0
	L1D_total_cache_accesses = 442368
	L1D_total_cache_misses = 411700
	L1D_total_cache_miss_rate = 0.9307
	L1D_total_cache_pending_hits = 0
	L1D_total_cache_reservation_fails = 0
	L1D_cache_data_port_util = 0.014
	L1D_cache_fill_port_util = 0.169
L1C_cache:
	L1C_total_cache_accesses = 0
	L1C_total_cache_misses = 0
	L1C_total_cache_pending_hits = 0
	L1C_total_cache_reservation_fails = 0
L1T_cache:
	L1T_total_cache_accesses = 0
	L1T_total_cache_misses = 0
	L1T_total_cache_pending_hits = 0
	L1T_total_cache_reservation_fails = 0

Total_core_cache_stats:
	Total_core_cache_stats_breakdown[GLOBAL_ACC_R][HIT] = 30668
	Total_core_cache_stats_breakdown[GLOBAL_ACC_R][HIT_RESERVED] = 0
	Total_core_cache_stats_breakdown[GLOBAL_ACC_R][MISS] = 308571
	Total_core_cache_stats_breakdown[GLOBAL_ACC_R][RESERVATION_FAIL] = 0
	Total_core_cache_stats_breakdown[GLOBAL_ACC_R][SECTOR_MISS] = 70361
	Total_core_cache_stats_breakdown[LOCAL_ACC_R][HIT] = 0
	Total_core_cache_stats_breakdown[LOCAL_ACC_R][HIT_RESERVED] = 0
	Total_core_cache_stats_breakdown[LOCAL_ACC_R][MISS] = 0
	Total_core_cache_stats_breakdown[LOCAL_ACC_R][RESERVATION_FAIL] = 0
	Total_core_cache_stats_breakdown[LOCAL_ACC_R][SECTOR_MISS] = 0
	Total_core_cache_stats_breakdown[CONST_ACC_R][HIT] = 0
	Total_core_cache_stats_breakdown[CONST_ACC_R][HIT_RESERVED] = 0
	Total_core_cache_stats_breakdown[CONST_ACC_R][MISS] = 0
	Total_core_cache_stats_breakdown[CONST_ACC_R][RESERVATION_FAIL] = 0
	Total_core_cache_stats_breakdown[CONST_ACC_R][SECTOR_MISS] = 0
	Total_core_cache_stats_breakdown[TEXTURE_ACC_R][HIT] = 0
	Total_core_cache_stats_breakdown[TEXTURE_ACC_R][HIT_RESERVED] = 0
	Total_core_cache_stats_breakdown[TEXTURE_ACC_R][MISS] = 0
	Total_core_cache_stats_breakdown[TEXTURE_ACC_R][RESERVATION_FAIL] = 0
	Total_core_cache_stats_breakdown[TEXTURE_ACC_R][SECTOR_MISS] = 0
	Total_core_cache_stats_breakdown[GLOBAL_ACC_W][HIT] = 0
	Total_core_cache_stats_breakdown[GLOBAL_ACC_W][HIT_RESERVED] = 0
	Total_core_cache_stats_breakdown[GLOBAL_ACC_W][MISS] = 32768
	Total_core_cache_stats_breakdown[GLOBAL_ACC_W][RESERVATION_FAIL] = 0
	Total_core_cache_stats_breakdown[GLOBAL_ACC_W][SECTOR_MISS] = 0
	Total_core_cache_stats_breakdown[LOCAL_ACC_W][HIT] = 0
	Total_core_cache_stats_breakdown[LOCAL_ACC_W][HIT_RESERVED] = 0
	Total_core_cache_stats_breakdown[LOCAL_ACC_W][MISS] = 0
	Total_core_cache_stats_breakdown[LOCAL_ACC_W][RESERVATION_FAIL] = 0
	Total_core_cache_stats_breakdown[LOCAL_ACC_W][SECTOR_MISS] = 0
	Total_core_cache_stats_breakdown[L1_WRBK_ACC][HIT] = 0
	Total_core_cache_stats_breakdown[L1_WRBK_ACC][HIT_RESERVED] = 0
	Total_core_cache_stats_breakdown[L1_WRBK_ACC][MISS] = 0
	Total_core_cache_stats_breakdown[L1_WRBK_ACC][RESERVATION_FAIL] = 0
	Total_core_cache_stats_breakdown[L1_WRBK_ACC][SECTOR_MISS] = 0
	Total_core_cache_stats_breakdown[L2_WRBK_ACC][HIT] = 0
	Total_core_cache_stats_breakdown[L2_WRBK_ACC][HIT_RESERVED] = 0
	Total_core_cache_stats_breakdown[L2_WRBK_ACC][MISS] = 0
	Total_core_cache_stats_breakdown[L2_WRBK_ACC][RESERVATION_FAIL] = 0
	Total_core_cache_stats_breakdown[L2_WRBK_ACC][SECTOR_MISS] = 0
	Total_core_cache_stats_breakdown[INST_ACC_R][HIT] = 0
	Total_core_cache_stats_breakdown[INST_ACC_R][HIT_RESERVED] = 0
	Total_core_cache_stats_breakdown[INST_ACC_R][MISS] = 0
	Total_core_cache_stats_breakdown[INST_ACC_R][RESERVATION_FAIL] = 0
	Total_core_cache_stats_breakdown[INST_ACC_R][SECTOR_MISS] = 0
	Total_core_cache_stats_breakdown[L1_WR_ALLOC_R][HIT] = 0
	Total_core_cache_stats_breakdown[L1_WR_ALLOC_R][HIT_RESERVED] = 0
	Total_core_cache_stats_breakdown[L1_WR_ALLOC_R][MISS] = 0
	Total_core_cache_stats_breakdown[L1_WR_ALLOC_R][RESERVATION_FAIL] = 0
	Total_core_cache_stats_breakdown[L1_WR_ALLOC_R][SECTOR_MISS] = 0
	Total_core_cache_stats_breakdown[L2_WR_ALLOC_R][HIT] = 0
	Total_core_cache_stats_breakdown[L2_WR_ALLOC_R][HIT_RESERVED] = 0
	Total_core_cache_stats_breakdown[L2_WR_ALLOC_R][MISS] = 0
	Total_core_cache_stats_breakdown[L2_WR_ALLOC_R][RESERVATION_FAIL] = 0
	Total_core_cache_stats_breakdown[L2_WR_ALLOC_R][SECTOR_MISS] = 0
	Total_core_cache_stats_breakdown[GLOBAL_ACC_R][TOTAL_ACCESS] = 409600
	Total_core_cache_stats_breakdown[GLOBAL_ACC_W][TOTAL_ACCESS] = 32768

Total_core_cache_fail_stats:
Shader 0 warp_id issue ditsribution:
warp_id:
0, 1, 2, 3, 4, 5, 6, 7, 8, 9, 10, 11, 12, 13, 14, 15, 16, 17, 18, 19, 20, 21, 22, 23, 24, 25, 26, 27, 28, 29, 30, 31, 
distro:
2962, 2962, 2962, 2962, 2962, 2962, 2962, 2962, 2962, 2962, 2962, 2962, 2962, 2962, 2962, 2962, 2962, 2962, 2962, 2962, 2962, 2962, 2962, 2962, 2962, 2962, 2962, 2962, 2962, 2962, 2962, 2962, 
gpgpu_n_tot_thrd_icount = 24264704
gpgpu_n_tot_w_icount = 758272
gpgpu_n_stall_shd_mem = 245760
gpgpu_n_mem_read_local = 0
gpgpu_n_mem_write_local = 0
gpgpu_n_mem_read_global = 373137
gpgpu_n_mem_write_global = 32768
gpgpu_n_mem_texture = 0
gpgpu_n_mem_const = 0
gpgpu_n_load_insn  = 3407872
gpgpu_n_store_insn = 131072
gpgpu_n_shmem_insn = 0
gpgpu_n_sstarr_insn = 0
gpgpu_n_tex_insn = 0
gpgpu_n_const_mem_insn = 0
gpgpu_n_param_mem_insn = 40960
gpgpu_n_shmem_bkconflict = 0
gpgpu_n_cache_bkconflict = 0
gpgpu_n_intrawarp_mshr_merge = 0
gpgpu_n_cmem_portconflict = 0
gpgpu_stall_shd_mem[c_mem][resource_stall] = 0
gpgpu_stall_shd_mem[s_mem][bk_conf] = 0
gpgpu_stall_shd_mem[gl_mem][resource_stall] = 245760
gpgpu_stall_shd_mem[gl_mem][coal_stall] = 0
gpgpu_stall_shd_mem[gl_mem][data_port_stall] = 0
gpu_reg_bank_conflict_stalls = 0
Warp Occupancy Distribution:
Stall:4872	W0_Idle:122277	W0_Scoreboard:7944903	W1:0	W2:0	W3:0	W4:245760	W5:0	W6:0	W7:0	W8:0	W9:0	W10:0	W11:0	W12:0	W13:0	W14:0	W15:0	W16:0	W17:0	W18:0	W19:0	W20:0	W21:0	W22:0	W23:0	W24:0	W25:0	W26:0	W27:0	W28:0	W29:0	W30:0	W31:0	W32:512512
single_issue_nums: WS0:189568	WS1:189568	WS2:189568	WS3:189568	
dual_issue_nums: WS0:0	WS1:0	WS2:0	WS3:0	
traffic_breakdown_coretomem[GLOBAL_ACC_R] = 2985096 {8:373137,}
traffic_breakdown_coretomem[GLOBAL_ACC_W] = 1310720 {40:32768,}
traffic_breakdown_memtocore[GLOBAL_ACC_R] = 14925480 {40:373137,}
traffic_breakdown_memtocore[GLOBAL_ACC_W] = 262144 {8:32768,}
maxmflatency = 1092 
max_icnt2mem_latency = 26 
maxmrqlatency = 340 
max_icnt2sh_latency = 31 
averagemflatency = 440 
avg_icnt2mem_latency = 23 
avg_mrq_latency = 8 
avg_icnt2sh_latency = 2 
mrq_lat_table:199610 	38888 	2533 	4041 	13421 	16006 	8635 	2083 	40 	0 	0 	0 	0 	0 	0 	0 	0 	0 	0 	0 	0 	0 	0 	0 	0 	0 	0 	0 	0 	0 	0 	0 	
dq_lat_table:0 	0 	0 	0 	0 	0 	0 	0 	0 	0 	0 	0 	0 	0 	0 	0 	0 	0 	0 	0 	0 	0 	0 	0 	0 	0 	0 	0 	0 	0 	0 	0 	
mf_lat_table:0 	0 	0 	0 	0 	0 	0 	121546 	183545 	100807 	7 	0 	0 	0 	0 	0 	0 	0 	0 	0 	0 	0 	0 	0 	0 	0 	0 	0 	0 	0 	0 	0 	
icnt2mem_lat_table:0 	0 	0 	0 	405905 	0 	0 	0 	0 	0 	0 	0 	0 	0 	0 	0 	0 	0 	0 	0 	0 	0 	0 	0 	
icnt2sh_lat_table:0 	372131 	31372 	2319 	83 	0 	0 	0 	0 	0 	0 	0 	0 	0 	0 	0 	0 	0 	0 	0 	0 	0 	0 	0 	
mf_lat_pw_table:0 	0 	0 	0 	0 	0 	0 	3 	415 	136 	0 	0 	0 	0 	0 	0 	0 	0 	0 	0 	0 	0 	0 	0 	0 	0 	0 	0 	0 	0 	0 	0 	
maximum concurrent accesses to same row:
dram[0]:         4         4         4         7         7         6         7         7         8         8         6         7         3         4         4         4 
dram[1]:         4         4         5         4         7         5         5         5         8        14         4        10         4         4         4         4 
dram[2]:         4         4         7         8         4         7         4         7        16        31         7         6         4         4         4         4 
dram[3]:         4         4         4         4         4         6         7         7        11        14         8        13         4         4         4         4 
dram[4]:         4         4         7         5         4         6         3         4        16        16         6         7         4         4         4         4 
dram[5]:         4         4         6         4         6         4         5         6         8        16         8         9         4         3         4         4 
dram[6]:         4         3         4         4         8         7         4         5        16         8         9         8         4         4         3         4 
dram[7]:         4         4         3         5         4         7         7         6        16         8        15         4         4         4         4         3 
dram[8]:         2         4         4         4         5         4         5         6        13        16         7        12         4         4         4         4 
dram[9]:         4         4        11         5         4         8         7         6        16        12         5        11         4         4         4         4 
dram[10]:         2         4         7         8         7         5         6         6         8        15         5        13         4         4         4         4 
dram[11]:         4         4         6         6         7         8         4         8         8        16        16         5         4         4         4         4 
dram[12]:         4         4         5         4         5         5         5         4        14        16        16        10         4         4         4         4 
dram[13]:         3         4         4         8         6         6         8         6        16        13        13         6         4         4         4         4 
dram[14]:         3         5         4         6         5         6         5         8        16         9         8         4         4         4         4         4 
dram[15]:         4         4         4         4         5         5         4         4        16         8         6         8         4         4         4         4 
dram[16]:         4         4         4         4         6         6         6         7         8         8         8         5         4         4         4         4 
dram[17]:         4         4         4         4         6         4         7         4        11        12         6        13         4         4         4         4 
dram[18]:         4         4         5         4         4         8         4         4        16        13        10        11         6         3         4         4 
dram[19]:         4         5         4         6         6         5         5         6        15        16         6         8         4         4         4         4 
dram[20]:         4         4         4         8         5         4         4         5        16        16         7         6         3         4         4         4 
dram[21]:         4         4         4         4         5         5         6         6         8         8         8         4         4         4         4         4 
dram[22]:         4         4         4         5         4         6         5         4        12        15        14         7         4         4         4         4 
dram[23]:         4         4         4         8         8         4         6         5         9        16         8         6         4         4         4         4 
dram[24]:         4         4         4         8         7         6         5         4        10        16         4        16         4         4         4         3 
dram[25]:         4         4         7         5         6         4         8         5         8         9         8         8         4         4         4         4 
dram[26]:         3         4         8         4         6         7         6         4        16         8         8         8         5         4         4         4 
dram[27]:         4         4         6         4         5         7         4         7        11        16         8         7         4         4         4         4 
dram[28]:         3         4         5         7         7         6         7         6        10        16        10        14         4         4         4         4 
dram[29]:         4         4         7         4         7         5         4         4         8         8         8         5         4         4         4         4 
dram[30]:         4         4         4         4         4         7         8         6        10        16        10        16         3         4         4         4 
dram[31]:         4         4         5         4         5         5         5         4        13        12         8        14         3         7         4         4 
maximum service time to same row:
dram[0]:      8771      5997      7506      7333      8197      6441      6500      8212      7270      6832     10138     12985      5910      6489     10023      8341 
dram[1]:      5852     10259      8101      6103      8177      5843      6085      6349      5952      6617     10007      9275      7445      6603     12843      8340 
dram[2]:      6442      7976     10156      5943     14776      8072      9876      6688      7251     15706      6365      5880     12930     12086     10171      7980 
dram[3]:      8719      7232     10051      6109      7976      8233      7457      8100      8318      9867     11224      5844      8330      9192      6432      7390 
dram[4]:      7185     11051     10019      8233      9243      8088      8107     11809      7443      6539      8055      5888     16566      5872      7280      5884 
dram[5]:      8272      6529      5960      6426      7096      8404      9477     10186      7426      5860      6395     13841     11239     10930     11142      9287 
dram[6]:      8687     10563      8117      7799      5843      8044      8025      8367      6523      7166      8303      8365      8416     10139      9154      6728 
dram[7]:      6562      5862     10306      8055      5871      5959      6147     17773      8890      8763      6530      7449      9095      6186      7792     11026 
dram[8]:      7559      6379      6480      5870      6503     10167      6482      6514      5907      5948      6587      7550      9262      7401      8976      6995 
dram[9]:      7470      5847      9067      5844      5903      5848      7272     11135      7004      8588      7611      9496      7273      6353      8348      6669 
dram[10]:      6570      6491      7438      8362      6215      8526     10058      8059      5844      6098      7085      9842      8340      9871      8851      9425 
dram[11]:      7488      6237      7829      8228      7971      7903     10327      8788      6558      6434      8066      7870      7988      8305      9445      9248 
dram[12]:      5922     11432     11994     10018      8950      7270      5993     12447      6593      5883      7959      8024      7295      7811      8161      7794 
dram[13]:      6712      8799     10243      6546      6806      8148      7900     11464      8043      7266      9268      6301      8339      7426     12002      5960 
dram[14]:      8483      6368      7523      8032      5843      6065      6831      7429      7407      8180      8483      5895      5899      6393      5915      5894 
dram[15]:      6831     13187     11065      5956      6888      8429      6397      7558     10038      6420      8079      7576      5847     10338      7671      6688 
dram[16]:      7708      9342      7560      6483     12234      6672      8411      7779      6331      8151      5890      6452      5904      8561      8027      8095 
dram[17]:      7265      9258      9863      7213      9531      7285      7273      6421      5916      9119      8095      7510      7326      6575      6604      6539 
dram[18]:      7359      9265     11060     10195      6583      7440     10477     17732      5899      6223      8241     13245      5959      6542     13367      8856 
dram[19]:      7717      5912      7870     10026      9664      8248      5867      7460      8092      5934      5921      6718      7791      5924     12246      6002 
dram[20]:      7975      7487      8232      7870      9120      7083      6443      8342      6455      5944      7647      7541      8008      8233      5902      6973 
dram[21]:      7402      8108      9217      5848      9340     10204      6394     10090      6517      6383      8091      5896      6385      6527      9100      7481 
dram[22]:      9975      6985      5847      6805      6474      6552      7551      7352      8421      6217     12198      7374      5871      6105      8361      6419 
dram[23]:     10303     16415      5847      8294      9182      6145      7499      6715      6623      5894      5964      6599     10123      6860     10243      7069 
dram[24]:      6514      8043      5960      9804      6200      7876     10019      5892      5864      5919      9770      9347      8651      7667     10210      8481 
dram[25]:      8653     12134      6754      6688     10453      6480      7474      8130      5884      6757     10456     13015      7053     14059      7607      5942 
dram[26]:     10359      9578      8208      7575     10255      8340     10541      9067      9096      7235      8886      8554      8091      8720     11023      7222 
dram[27]:      8024      9328      8123      7301      7326      8619     10382      8679      8401      9249     12162      7354      5843     12781     11043     10272 
dram[28]:      8144      7520     10295      7241      8481      9963      8364      5906      7681     10190      5851      7310      6505      8459      8627      8160 
dram[29]:      5890      5902     11887      7054      7821     10218     14643      7303      5948      6971      8596      5867      7362     10042      9075      7828 
dram[30]:      6000     10827      5866     17395     17251      6593      5883      5891      7579      5946      5902      8718      8656      8016     10979      7545 
dram[31]:      7420      7016      9199      5876      6290      5915      5871      8019      9459      6533     10137      6539      7572      5932      9226      6801 
average row accesses per activate:
dram[0]:  1.199105  1.231959  1.214286  1.205021  1.298765  1.186046  1.195072  1.272727  1.365546  1.324561  1.212598  1.254005  1.184959  1.193622  1.199005  1.155462 
dram[1]:  1.178947  1.181609  1.271768  1.257683  1.177606  1.216061  1.296116  1.237069  1.354298  1.378076  1.236607  1.242553  1.197452  1.194175  1.189573  1.205543 
dram[2]:  1.227723  1.260870  1.227991  1.251670  1.218487  1.204819  1.162264  1.210317  1.418014  1.382831  1.277662  1.255914  1.235000  1.187500  1.212815  1.213429 
dram[3]:  1.204878  1.241379  1.169492  1.235431  1.185741  1.250620  1.219207  1.281596  1.355789  1.307856  1.238636  1.183398  1.162844  1.218509  1.264198  1.251232 
dram[4]:  1.216152  1.182222  1.158120  1.270142  1.214912  1.156000  1.207101  1.239180  1.336207  1.420935  1.228395  1.204589  1.245000  1.216920  1.192225  1.244019 
dram[5]:  1.223256  1.180952  1.190476  1.283293  1.210300  1.202335  1.197505  1.251337  1.356828  1.360656  1.245322  1.202822  1.188406  1.149789  1.238979  1.178571 
dram[6]:  1.211401  1.212435  1.265000  1.267241  1.220149  1.292621  1.219123  1.234513  1.418093  1.344398  1.256785  1.210309  1.284884  1.193059  1.216958  1.178197 
dram[7]:  1.232323  1.260204  1.170254  1.206413  1.195446  1.223529  1.284116  1.260000  1.389671  1.402844  1.224206  1.275938  1.233516  1.165049  1.233415  1.205811 
dram[8]:  1.189873  1.204396  1.252475  1.222222  1.195358  1.231504  1.203187  1.269690  1.344262  1.344195  1.210938  1.250000  1.191846  1.181208  1.181609  1.259843 
dram[9]:  1.227818  1.214286  1.274667  1.201535  1.195489  1.239560  1.271394  1.289216  1.438095  1.373650  1.245868  1.267094  1.225064  1.196305  1.192053  1.165354 
dram[10]:  1.122222  1.181176  1.274611  1.224742  1.319048  1.233766  1.224066  1.246253  1.345912  1.500000  1.262911  1.294979  1.232984  1.182033  1.210654  1.208845 
dram[11]:  1.200000  1.170732  1.267218  1.191919  1.218487  1.196617  1.240618  1.245536  1.386728  1.410959  1.311905  1.248945  1.196172  1.195011  1.187755  1.220588 
dram[12]:  1.184332  1.248649  1.309824  1.238512  1.237251  1.218624  1.195072  1.168000  1.366733  1.352201  1.243952  1.316326  1.208651  1.194581  1.228723  1.207824 
dram[13]:  1.231156  1.218962  1.227053  1.280397  1.210744  1.222222  1.233333  1.235043  1.388027  1.377574  1.240157  1.251073  1.286154  1.182448  1.266476  1.226277 
dram[14]:  1.225962  1.178723  1.252381  1.213333  1.234927  1.236052  1.150877  1.212982  1.422222  1.363057  1.231579  1.213389  1.216387  1.183856  1.226872  1.163636 
dram[15]:  1.173447  1.196030  1.242206  1.261468  1.192843  1.213992  1.238659  1.155235  1.449761  1.386364  1.213178  1.317618  1.154717  1.156436  1.210280  1.155303 
dram[16]:  1.230392  1.218509  1.245192  1.218884  1.221996  1.269767  1.280788  1.216981  1.382046  1.356994  1.284519  1.286064  1.190157  1.251295  1.212815  1.292754 
dram[17]:  1.182648  1.233415  1.223650  1.195789  1.236842  1.241379  1.215768  1.186722  1.360825  1.325397  1.239686  1.264706  1.238979  1.190275  1.201754  1.227513 
dram[18]:  1.218225  1.224299  1.250000  1.308357  1.157324  1.287305  1.216630  1.181102  1.301115  1.305816  1.260504  1.243802  1.159483  1.192771  1.215000  1.201900 
dram[19]:  1.232000  1.198294  1.219409  1.223427  1.171271  1.218341  1.249467  1.231102  1.352459  1.367432  1.280591  1.238189  1.182222  1.193814  1.264865  1.224299 
dram[20]:  1.208696  1.258856  1.149723  1.281174  1.204301  1.235043  1.219207  1.264574  1.367742  1.274766  1.234914  1.264646  1.177130  1.235732  1.180778  1.181435 
dram[21]:  1.172566  1.234501  1.175439  1.195699  1.211454  1.224000  1.211045  1.200000  1.315068  1.294798  1.194617  1.225610  1.290411  1.178649  1.202586  1.242054 
dram[22]:  1.202899  1.194444  1.213333  1.280423  1.190476  1.253731  1.192079  1.218487  1.425743  1.416040  1.312020  1.203704  1.210412  1.191209  1.200957  1.211823 
dram[23]:  1.184275  1.192214  1.219616  1.206496  1.208494  1.239741  1.176699  1.224299  1.406542  1.368421  1.337731  1.234086  1.193277  1.210526  1.288235  1.237852 
dram[24]:  1.271709  1.240506  1.215517  1.234568  1.204503  1.215139  1.201754  1.240275  1.460396  1.321083  1.222222  1.293303  1.164114  1.236908  1.277778  1.160643 
dram[25]:  1.224932  1.237443  1.239316  1.272251  1.235412  1.250564  1.286432  1.250000  1.344064  1.359026  1.283688  1.251092  1.147059  1.261838  1.219512  1.203426 
dram[26]:  1.193317  1.236641  1.262673  1.218391  1.245033  1.270208  1.335052  1.281553  1.350495  1.345455  1.381395  1.308612  1.265957  1.183288  1.206982  1.189409 
dram[27]:  1.213429  1.260759  1.190965  1.224771  1.172131  1.192547  1.287129  1.300000  1.330645  1.355372  1.277635  1.250526  1.195122  1.201005  1.204819  1.211401 
dram[28]:  1.190578  1.193396  1.335260  1.230068  1.234513  1.244542  1.261959  1.225941  1.349558  1.407229  1.210019  1.295405  1.199536  1.170940  1.152401  1.218673 
dram[29]:  1.202734  1.168628  1.243902  1.253275  1.231707  1.202532  1.176229  1.232323  1.340611  1.353982  1.256696  1.208421  1.168514  1.200472  1.195294  1.163180 
dram[30]:  1.208738  1.267045  1.196850  1.204969  1.148551  1.201597  1.203036  1.223881  1.494845  1.426724  1.270541  1.201646  1.203753  1.241706  1.192214  1.254144 
dram[31]:  1.282722  1.262500  1.194508  1.174905  1.218624  1.219712  1.234216  1.244344  1.359140  1.315385  1.195266  1.281938  1.206731  1.255220  1.164045  1.219373 
average row locality = 285257/229978 = 1.240366
number of total memory accesses made:
dram[0]:         0         0         0         0         0         0         0         0         0         0         0         0         0         0         0         0 
dram[1]:         0         0         0         0         0         0         0         0         0         0         0         0         0         0         0         0 
dram[2]:         0         0         0         0         0         0         0         0         0         0         0         0         0         0         0         0 
dram[3]:         0         0         0         0         0         0         0         0         0         0         0         0         0         0         0         0 
dram[4]:         0         0         0         0         0         0         0         0         0         0         0         0         0         0         0         0 
dram[5]:         0         0         0         0         0         0         0         0         0         0         0         0         0         0         0         0 
dram[6]:         0         0         0         0         0         0         0         0         0         0         0         0         0         0         0         0 
dram[7]:         0         0         0         0         0         0         0         0         0         0         0         0         0         0         0         0 
dram[8]:         0         0         0         0         0         0         0         0         0         0         0         0         0         0         0         0 
dram[9]:         0         0         0         0         0         0         0         0         0         0         0         0         0         0         0         0 
dram[10]:         0         0         0         0         0         0         0         0         0         0         0         0         0         0         0         0 
dram[11]:         0         0         0         0         0         0         0         0         0         0         0         0         0         0         0         0 
dram[12]:         0         0         0         0         0         0         0         0         0         0         0         0         0         0         0         0 
dram[13]:         0         0         0         0         0         0         0         0         0         0         0         0         0         0         0         0 
dram[14]:         0         0         0         0         0         0         0         0         0         0         0         0         0         0         0         0 
dram[15]:         0         0         0         0         0         0         0         0         0         0         0         0         0         0         0         0 
dram[16]:         0         0         0         0         0         0         0         0         0         0         0         0         0         0         0         0 
dram[17]:         0         0         0         0         0         0         0         0         0         0         0         0         0         0         0         0 
dram[18]:         0         0         0         0         0         0         0         0         0         0         0         0         0         0         0         0 
dram[19]:         0         0         0         0         0         0         0         0         0         0         0         0         0         0         0         0 
dram[20]:         0         0         0         0         0         0         0         0         0         0         0         0         0         0         0         0 
dram[21]:         0         0         0         0         0         0         0         0         0         0         0         0         0         0         0         0 
dram[22]:         0         0         0         0         0         0         0         0         0         0         0         0         0         0         0         0 
dram[23]:         0         0         0         0         0         0         0         0         0         0         0         0         0         0         0         0 
dram[24]:         0         0         0         0         0         0         0         0         0         0         0         0         0         0         0         0 
dram[25]:         0         0         0         0         0         0         0         0         0         0         0         0         0         0         0         0 
dram[26]:         0         0         0         0         0         0         0         0         0         0         0         0         0         0         0         0 
dram[27]:         0         0         0         0         0         0         0         0         0         0         0         0         0         0         0         0 
dram[28]:         0         0         0         0         0         0         0         0         0         0         0         0         0         0         0         0 
dram[29]:         0         0         0         0         0         0         0         0         0         0         0         0         0         0         0         0 
dram[30]:         0         0         0         0         0         0         0         0         0         0         0         0         0         0         0         0 
dram[31]:         0         0         0         0         0         0         0         0         0         0         0         0         0         0         0         0 
total accesses: 0
min_bank_accesses = 0!
min_chip_accesses = 0!
number of total read accesses:
dram[0]:       536       478       544       576       526       612       582       588       522       476       544       470       576       518       482       550 
dram[1]:       560       514       482       532       610       636       534       574       518       488       482       512       558       486       502       522 
dram[2]:       496       464       544       562       580       600       616       610       486       468       526       512       486       472       530       506 
dram[3]:       494       468       552       530       632       504       584       578       516       488       460       548       492       470       512       508 
dram[4]:       512       532       542       536       554       578       612       544       492       510       532       572       490       552       552       520 
dram[5]:       526       496       600       530       564       618       576       468       488       536       528       596       486       538       534       528 
dram[6]:       510       468       506       588       654       508       612       558       452       520       530       522       434       542       488       562 
dram[7]:       488       494       598       602       630       624       574       504       464       464       538       506       444       586       502       498 
dram[8]:       470       548       506       594       618       516       604       532       528       532       534       476       488       522       514       480 
dram[9]:       512       544       478       626       636       564       520       526       476       508       532       514       470       510       540       592 
dram[10]:       606       502       492       594       554       570       590       582       514       466       466       526       464       486       500       492 
dram[11]:       558       576       460       590       580       566       562       558       478       490       486       520       492       520       582       498 
dram[12]:       514       462       520       566       558       602       582       584       554       524       538       444       468       482       462       494 
dram[13]:       490       540       508       516       586       594       592       578       498       474       544       518       402       508       442       504 
dram[14]:       510       554       526       546       594       576       656       598       448       514       520       522       572       526       556       576 
dram[15]:       548       482       518       550       600       590       628       640       478       482       568       466       604       580       518       610 
dram[16]:       502       474       518       568       600       546       520       516       534       522       528       454       524       470       530       446 
dram[17]:       518       502       476       568       564       540       586       572       532       540       552       480       528       554       548       464 
dram[18]:       508       524       540       454       640       578       556       600       572       568       514       530       530       490       486       506 
dram[19]:       462       562       578       564       636       558       586       570       532       534       542       550       524       572       468       524 
dram[20]:       556       462       622       524       560       578       584       564       508       554       508       548       516       492       516       560 
dram[21]:       530       458       536       556       550       612       614       582       544       544       512       538       460       534       558       508 
dram[22]:       498       516       546       484       650       588       602       580       448       444       434       520       544       528       502       492 
dram[23]:       482       490       572       520       626       574       606       524       474       496       436       530       560       478       438       484 
dram[24]:       454       490       564       500       642       610       548       542       462       562       478       460       526       490       460       578 
dram[25]:       452       542       580       486       614       554       512       550       540       542       464       494       582       446       500       562 
dram[26]:       500       486       548       530       564       550       518       528       554       538       480       468       462       434       484       584 
dram[27]:       506       498       580       534       572       576       520       494       532       528       432       516       582       472       500       510 
dram[28]:       556       506       462       540       558       570       554       586       482       456       570       520       512       540       552       496 
dram[29]:       528       596       510       574       606       570       574       610       486       484       484       516       520       504       508       556 
dram[30]:       498       446       608       582       634       602       634       574       452       534       548       520       444       518       490       454 
dram[31]:       490       404       522       618       602       594       606       550       504       556       534       510       494       536       518       428 
total dram reads = 271874
bank skew: 656/402 = 1.63
chip skew: 8862/8228 = 1.08
number of total write accesses:
dram[0]:         0         0         0         0         0         0         0         0       128       128        96        96        28        24         0         0 
dram[1]:         0         0         0         0         0         0         0         0       128       128        96        96        24        24         0         0 
dram[2]:         0         0         0         0         0         0         0         0       128       128       104        96        32        12         0         0 
dram[3]:         0         0         0         0         0         0         0         0       128       128       100        92        36        16         0         0 
dram[4]:         0         0         0         0         0         0         0         0       128       128        92        88        32        36         0         0 
dram[5]:         0         0         0         0         0         0         0         0       128       128        92       104        24        28         0         0 
dram[6]:         0         0         0         0         0         0         0         0       128       128        96        92        32        32         0         0 
dram[7]:         0         0         0         0         0         0         0         0       128       128       100        96        20        32         0         0 
dram[8]:         0         0         0         0         0         0         0         0       128       128       104       100        36        24         0         0 
dram[9]:         0         0         0         0         0         0         0         0       128       128        92       100        36        32         0         0 
dram[10]:         0         0         0         0         0         0         0         0       128       128        96       108        28        32         0         0 
dram[11]:         0         0         0         0         0         0         0         0       128       128        92        96        32        28         0         0 
dram[12]:         0         0         0         0         0         0         0         0       128       124       100        96        28        12         0         0 
dram[13]:         0         0         0         0         0         0         0         0       128       128       104        92        40        16         0         0 
dram[14]:         0         0         0         0         0         0         0         0       128       128        92        88        28         8         4         0 
dram[15]:         0         0         0         0         0         0         0         0       128       128        88        92        32        16         0         0 
dram[16]:         0         0         0         0         0         0         0         0       128       128       104        96        32        28         0         0 
dram[17]:         0         0         0         0         0         0         0         0       128       128       100       100        24        36         0         0 
dram[18]:         0         0         0         0         0         0         0         0       128       128       104        96        32        20         0         0 
dram[19]:         0         0         0         0         0         0         0         0       128       124        92       100        32        28         0         0 
dram[20]:         0         0         0         0         0         0         0         0       128       128        92        96        36        24         0         0 
dram[21]:         0         0         0         0         0         0         0         0       128       128        92        92        44        28         0         0 
dram[22]:         0         0         0         0         0         0         0         0       128       124       100        92        32        32         0         0 
dram[23]:         0         0         0         0         0         0         0         0       128       128        92        92        32        20         0         0 
dram[24]:         0         0         0         0         0         0         0         0       128       124        96       112        24        24         0         0 
dram[25]:         0         0         0         0         0         0         0         0       128       128       100       100        12        28         0         0 
dram[26]:         0         0         0         0         0         0         0         0       128       128       120       100        32        20         0         0 
dram[27]:         0         0         0         0         0         0         0         0       128       128        92        96        24        24         0         0 
dram[28]:         0         0         0         0         0         0         0         0       128       128        88        96        20        32         0         0 
dram[29]:         0         0         0         0         0         0         0         0       128       128       100        88        28        20         0         0 
dram[30]:         0         0         0         0         0         0         0         0       128       128       104        88        20        24         0         0 
dram[31]:         0         0         0         0         0         0         0         0       128       128        96        96        32        20         0         0 
total dram writes = 16092
min_bank_accesses = 0!
chip skew: 528/476 = 1.11
average mf latency per bank:
[...]
issued_two_Eff = 0.054353 
queue_avg = 0.245173 


dram_util_bins: 0 0 0 0 0 0 0 0 0 0
dram_eff_bins: 0 0 0 0 0 0 0 0 0 0
mrqq: max=15 avg=0.245173
Memory Partition 28: 
Cache L2_bank_056:
MSHR contents

Cache L2_bank_057:
MSHR contents

In Dram Latency Queue (total = 0): 
DRAM[28]: 16 bks, busW=16 BL=2 CL=12, tRRD=3 tCCD=1, tRCD=12 tRAS=28 tRP=12 tRC=40
n_cmd=211789 n_nop=189701 n_act=7131 n_pre=7115 n_ref_event=0 n_req=8859 n_rd=8460 n_rd_L2_A=0 n_write=368 n_wr_bk=124 bw_util=0.04227
n_activity=129696 dram_eff=0.06902
bk0: 556a 198442i bk1: 506a 199613i bk2: 462a 202118i bk3: 540a 199372i bk4: 558a 198867i bk5: 570a 198731i bk6: 554a 199196i bk7: 586a 198158i bk8: 482a 198308i bk9: 456a 199300i bk10: 570a 196702i bk11: 520a 198463i bk12: 512a 199836i bk13: 540a 198371i bk14: 552a 198010i bk15: 496a 200236i 

------------------------------------------------------------------------

Row_Buffer_Locality = 0.195056
Row_Buffer_Locality_read = 0.174586
Row_Buffer_Locality_write = 0.629073
Bank_Level_Parallism = 2.189962
Bank_Level_Parallism_Col = 1.487564
Bank_Level_Parallism_Ready = 1.034517
write_to_read_ratio_blp_rw_average = 0.033756
GrpLevelPara = 1.348501 

BW Util details:
bwutil = 0.042268 
total_CMD = 211789 
util_bw = 8952 
Wasted_Col = 54877 
Wasted_Row = 33780 
Idle = 114180 

BW Util Bottlenecks: 
RCDc_limit = 75815 
RCDWRc_limit = 1283 
WTRc_limit = 2901 
RTWc_limit = 1790 
CCDLc_limit = 2014 
rwq = 0 
CCDLc_limit_alone = 1780 
WTRc_limit_alone = 2725 
RTWc_limit_alone = 1732 

Commands details: 
total_CMD = 211789 
n_nop = 189701 
Read = 8460 
Write = 368 
L2_Alloc = 0 
L2_WB = 124 
n_act = 7131 
n_pre = 7115 
n_ref = 0 
n_req = 8859 
total_req = 8952 

Dual Bus Interface Util: 
issued_total_row = 14246 
issued_total_col = 8952 
Row_Bus_Util =  0.067265 
CoL_Bus_Util = 0.042268 
Either_Row_CoL_Bus_Util = 0.104292 
Issued_on_Two_Bus_Simul_Util = 0.005241 
issued_two_Eff = 0.050254 
queue_avg = 0.224162 


dram_util_bins: 0 0 0 0 0 0 0 0 0 0
dram_eff_bins: 0 0 0 0 0 0 0 0 0 0
mrqq: max=16 avg=0.224162
Memory Partition 29: 
Cache L2_bank_058:
MSHR contents

Cache L2_bank_059:
MSHR contents

In Dram Latency Queue (total = 0): 
DRAM[29]: 16 bks, busW=16 BL=2 CL=12, tRRD=3 tCCD=1, tRCD=12 tRAS=28 tRP=12 tRC=40
n_cmd=211789 n_nop=189229 n_act=7377 n_pre=7361 n_ref_event=0 n_req=9031 n_rd=8626 n_rd_L2_A=0 n_write=376 n_wr_bk=116 bw_util=0.04305
n_activity=126813 dram_eff=0.0719
bk0: 528a 199407i bk1: 596a 196910i bk2: 510a 200123i bk3: 574a 198482i bk4: 606a 197727i bk5: 570a 197868i bk6: 574a 197569i bk7: 610a 197544i bk8: 486a 197880i bk9: 484a 198340i bk10: 484a 198080i bk11: 516a 197851i bk12: 520a 198828i bk13: 504a 199700i bk14: 508a 199505i bk15: 556a 198028i 

------------------------------------------------------------------------

Row_Buffer_Locality = 0.183147
Row_Buffer_Locality_read = 0.164155
Row_Buffer_Locality_write = 0.587654
Bank_Level_Parallism = 2.319666
Bank_Level_Parallism_Col = 1.544188
Bank_Level_Parallism_Ready = 1.031696
write_to_read_ratio_blp_rw_average = 0.038128
GrpLevelPara = 1.389103 

BW Util details:
bwutil = 0.043052 
total_CMD = 211789 
util_bw = 9118 
Wasted_Col = 54466 
Wasted_Row = 32901 
Idle = 115304 

BW Util Bottlenecks: 
RCDc_limit = 77626 
RCDWRc_limit = 1418 
WTRc_limit = 3183 
RTWc_limit = 2471 
CCDLc_limit = 2194 
rwq = 0 
CCDLc_limit_alone = 1914 
WTRc_limit_alone = 2994 
RTWc_limit_alone = 2380 

Commands details: 
total_CMD = 211789 
n_nop = 189229 
Read = 8626 
Write = 376 
L2_Alloc = 0 
L2_WB = 116 
n_act = 7377 
n_pre = 7361 
n_ref = 0 
n_req = 9031 
total_req = 9118 

Dual Bus Interface Util: 
issued_total_row = 14738 
issued_total_col = 9118 
Row_Bus_Util =  0.069588 
CoL_Bus_Util = 0.043052 
Either_Row_CoL_Bus_Util = 0.106521 
Issued_on_Two_Bus_Simul_Util = 0.006119 
issued_two_Eff = 0.057447 
queue_avg = 0.253106 


dram_util_bins: 0 0 0 0 0 0 0 0 0 0
dram_eff_bins: 0 0 0 0 0 0 0 0 0 0
mrqq: max=18 avg=0.253106
Memory Partition 30: 
Cache L2_bank_060:
MSHR contents

Cache L2_bank_061:
MSHR contents

In Dram Latency Queue (total = 0): 
DRAM[30]: 16 bks, busW=16 BL=2 CL=12, tRRD=3 tCCD=1, tRCD=12 tRAS=28 tRP=12 tRC=40
n_cmd=211789 n_nop=189383 n_act=7209 n_pre=7193 n_ref_event=0 n_req=8955 n_rd=8538 n_rd_L2_A=0 n_write=392 n_wr_bk=100 bw_util=0.04264
n_activity=132404 dram_eff=0.0682
bk0: 498a 200518i bk1: 446a 202045i bk2: 608a 197231i bk3: 582a 198223i bk4: 634a 196120i bk5: 602a 197520i bk6: 634a 196899i bk7: 574a 198465i bk8: 452a 200745i bk9: 534a 198257i bk10: 548a 196829i bk11: 520a 197960i bk12: 444a 201346i bk13: 518a 200072i bk14: 490a 200469i bk15: 454a 201823i 

------------------------------------------------------------------------

Row_Buffer_Locality = 0.194975
Row_Buffer_Locality_read = 0.170063
Row_Buffer_Locality_write = 0.705036
Bank_Level_Parallism = 2.144358
Bank_Level_Parallism_Col = 1.469481
Bank_Level_Parallism_Ready = 1.026357
write_to_read_ratio_blp_rw_average = 0.028022
GrpLevelPara = 1.340769 

BW Util details:
bwutil = 0.042637 
total_CMD = 211789 
util_bw = 9030 
Wasted_Col = 55823 
Wasted_Row = 34504 
Idle = 112432 

BW Util Bottlenecks: 
RCDc_limit = 77284 
RCDWRc_limit = 1069 
WTRc_limit = 2419 
RTWc_limit = 1460 
CCDLc_limit = 1870 
rwq = 0 
CCDLc_limit_alone = 1712 
WTRc_limit_alone = 2299 
RTWc_limit_alone = 1422 

Commands details: 
total_CMD = 211789 
n_nop = 189383 
Read = 8538 
Write = 392 
L2_Alloc = 0 
L2_WB = 100 
n_act = 7209 
n_pre = 7193 
n_ref = 0 
n_req = 8955 
total_req = 9030 

Dual Bus Interface Util: 
issued_total_row = 14402 
issued_total_col = 9030 
Row_Bus_Util =  0.068002 
CoL_Bus_Util = 0.042637 
Either_Row_CoL_Bus_Util = 0.105794 
Issued_on_Two_Bus_Simul_Util = 0.004844 
issued_two_Eff = 0.045791 
queue_avg = 0.201200 


dram_util_bins: 0 0 0 0 0 0 0 0 0 0
dram_eff_bins: 0 0 0 0 0 0 0 0 0 0
mrqq: max=14 avg=0.2012
Memory Partition 31: 
Cache L2_bank_062:
MSHR contents

Cache L2_bank_063:
MSHR contents

In Dram Latency Queue (total = 0): 
DRAM[31]: 16 bks, busW=16 BL=2 CL=12, tRRD=3 tCCD=1, tRCD=12 tRAS=28 tRP=12 tRC=40
n_cmd=211789 n_nop=189700 n_act=7168 n_pre=7152 n_ref_event=0 n_req=8879 n_rd=8466 n_rd_L2_A=0 n_write=384 n_wr_bk=116 bw_util=0.04233
n_activity=127390 dram_eff=0.07038
bk0: 490a 201108i bk1: 404a 202719i bk2: 522a 199347i bk3: 618a 196688i bk4: 602a 197735i bk5: 594a 197591i bk6: 606a 197439i bk7: 550a 199136i bk8: 504a 197994i bk9: 556a 196464i bk10: 534a 196874i bk11: 510a 198495i bk12: 494a 199957i bk13: 536a 199224i bk14: 518a 199182i bk15: 428a 201919i 

------------------------------------------------------------------------

Row_Buffer_Locality = 0.192702
Row_Buffer_Locality_read = 0.171391
Row_Buffer_Locality_write = 0.629540
Bank_Level_Parallism = 2.237997
Bank_Level_Parallism_Col = 1.519499
Bank_Level_Parallism_Ready = 1.039148
write_to_read_ratio_blp_rw_average = 0.034262
GrpLevelPara = 1.377289 

BW Util details:
bwutil = 0.042335 
total_CMD = 211789 
util_bw = 8966 
Wasted_Col = 53817 
Wasted_Row = 33567 
Idle = 115439 

BW Util Bottlenecks: 
RCDc_limit = 75738 
RCDWRc_limit = 1307 
WTRc_limit = 3006 
RTWc_limit = 1999 
CCDLc_limit = 2019 
rwq = 0 
CCDLc_limit_alone = 1804 
WTRc_limit_alone = 2850 
RTWc_limit_alone = 1940 

Commands details: 
total_CMD = 211789 
n_nop = 189700 
Read = 8466 
Write = 384 
L2_Alloc = 0 
L2_WB = 116 
n_act = 7168 
n_pre = 7152 
n_ref = 0 
n_req = 8879 
total_req = 8966 

Dual Bus Interface Util: 
issued_total_row = 14320 
issued_total_col = 8966 
Row_Bus_Util =  0.067614 
CoL_Bus_Util = 0.042335 
Either_Row_CoL_Bus_Util = 0.104297 
Issued_on_Two_Bus_Simul_Util = 0.005652 
issued_two_Eff = 0.054190 
queue_avg = 0.226532 


dram_util_bins: 0 0 0 0 0 0 0 0 0 0
dram_eff_bins: 0 0 0 0 0 0 0 0 0 0
mrqq: max=17 avg=0.226532

========= L2 cache stats =========
L2_cache_bank[0]: Access = 6416, Miss = 4632, Miss_rate = 0.722, Pending_hits = 0, Reservation_fails = 0
L2_cache_bank[1]: Access = 6344, Miss = 4580, Miss_rate = 0.722, Pending_hits = 0, Reservation_fails = 0
L2_cache_bank[2]: Access = 6349, Miss = 4566, Miss_rate = 0.719, Pending_hits = 0, Reservation_fails = 0
L2_cache_bank[3]: Access = 6385, Miss = 4584, Miss_rate = 0.718, Pending_hits = 0, Reservation_fails = 0
L2_cache_bank[4]: Access = 6350, Miss = 4568, Miss_rate = 0.719, Pending_hits = 2, Reservation_fails = 0
L2_cache_bank[5]: Access = 6259, Miss = 4514, Miss_rate = 0.721, Pending_hits = 0, Reservation_fails = 0
L2_cache_bank[6]: Access = 6367, Miss = 4538, Miss_rate = 0.713, Pending_hits = 0, Reservation_fails = 0
L2_cache_bank[7]: Access = 6161, Miss = 4422, Miss_rate = 0.718, Pending_hits = 0, Reservation_fails = 0
L2_cache_bank[8]: Access = 6430, Miss = 4614, Miss_rate = 0.718, Pending_hits = 0, Reservation_fails = 0
L2_cache_bank[9]: Access = 6459, Miss = 4680, Miss_rate = 0.725, Pending_hits = 0, Reservation_fails = 0
L2_cache_bank[10]: Access = 6433, Miss = 4622, Miss_rate = 0.718, Pending_hits = 0, Reservation_fails = 0
L2_cache_bank[11]: Access = 6400, Miss = 4614, Miss_rate = 0.721, Pending_hits = 0, Reservation_fails = 0
L2_cache_bank[12]: Access = 6287, Miss = 4506, Miss_rate = 0.717, Pending_hits = 0, Reservation_fails = 0
L2_cache_bank[13]: Access = 6330, Miss = 4596, Miss_rate = 0.726, Pending_hits = 0, Reservation_fails = 0
L2_cache_bank[14]: Access = 6318, Miss = 4550, Miss_rate = 0.720, Pending_hits = 0, Reservation_fails = 0
L2_cache_bank[15]: Access = 6418, Miss = 4590, Miss_rate = 0.715, Pending_hits = 0, Reservation_fails = 0
L2_cache_bank[16]: Access = 6357, Miss = 4566, Miss_rate = 0.718, Pending_hits = 2, Reservation_fails = 0
L2_cache_bank[17]: Access = 6273, Miss = 4512, Miss_rate = 0.719, Pending_hits = 0, Reservation_fails = 0
L2_cache_bank[18]: Access = 6256, Miss = 4484, Miss_rate = 0.717, Pending_hits = 0, Reservation_fails = 0
L2_cache_bank[19]: Access = 6551, Miss = 4696, Miss_rate = 0.717, Pending_hits = 0, Reservation_fails = 0
L2_cache_bank[20]: Access = 6265, Miss = 4506, Miss_rate = 0.719, Pending_hits = 0, Reservation_fails = 0
L2_cache_bank[21]: Access = 6354, Miss = 4506, Miss_rate = 0.709, Pending_hits = 0, Reservation_fails = 0
L2_cache_bank[22]: Access = 6257, Miss = 4526, Miss_rate = 0.723, Pending_hits = 0, Reservation_fails = 0
L2_cache_bank[23]: Access = 6396, Miss = 4638, Miss_rate = 0.725, Pending_hits = 0, Reservation_fails = 0
L2_cache_bank[24]: Access = 6249, Miss = 4508, Miss_rate = 0.721, Pending_hits = 0, Reservation_fails = 0
L2_cache_bank[25]: Access = 6239, Miss = 4486, Miss_rate = 0.719, Pending_hits = 0, Reservation_fails = 0
L2_cache_bank[26]: Access = 6127, Miss = 4358, Miss_rate = 0.711, Pending_hits = 0, Reservation_fails = 0
L2_cache_bank[27]: Access = 6275, Miss = 4560, Miss_rate = 0.727, Pending_hits = 0, Reservation_fails = 0
L2_cache_bank[28]: Access = 6494, Miss = 4710, Miss_rate = 0.725, Pending_hits = 0, Reservation_fails = 0
L2_cache_bank[29]: Access = 6524, Miss = 4748, Miss_rate = 0.728, Pending_hits = 2, Reservation_fails = 0
L2_cache_bank[30]: Access = 6626, Miss = 4798, Miss_rate = 0.724, Pending_hits = 0, Reservation_fails = 0
L2_cache_bank[31]: Access = 6508, Miss = 4728, Miss_rate = 0.726, Pending_hits = 0, Reservation_fails = 0
L2_cache_bank[32]: Access = 6402, Miss = 4560, Miss_rate = 0.712, Pending_hits = 0, Reservation_fails = 0
L2_cache_bank[33]: Access = 6085, Miss = 4308, Miss_rate = 0.708, Pending_hits = 0, Reservation_fails = 0
L2_cache_bank[34]: Access = 6434, Miss = 4616, Miss_rate = 0.717, Pending_hits = 0, Reservation_fails = 0
L2_cache_bank[35]: Access = 6286, Miss = 4532, Miss_rate = 0.721, Pending_hits = 0, Reservation_fails = 0
L2_cache_bank[36]: Access = 6454, Miss = 4650, Miss_rate = 0.720, Pending_hits = 0, Reservation_fails = 0
L2_cache_bank[37]: Access = 6318, Miss = 4570, Miss_rate = 0.723, Pending_hits = 0, Reservation_fails = 0
L2_cache_bank[38]: Access = 6442, Miss = 4656, Miss_rate = 0.723, Pending_hits = 0, Reservation_fails = 0
L2_cache_bank[39]: Access = 6550, Miss = 4754, Miss_rate = 0.726, Pending_hits = 0, Reservation_fails = 0
L2_cache_bank[40]: Access = 6493, Miss = 4698, Miss_rate = 0.724, Pending_hits = 0, Reservation_fails = 0
L2_cache_bank[41]: Access = 6367, Miss = 4594, Miss_rate = 0.722, Pending_hits = 0, Reservation_fails = 0
L2_cache_bank[42]: Access = 6409, Miss = 4632, Miss_rate = 0.723, Pending_hits = 0, Reservation_fails = 0
L2_cache_bank[43]: Access = 6434, Miss = 4660, Miss_rate = 0.724, Pending_hits = 0, Reservation_fails = 0
L2_cache_bank[44]: Access = 6290, Miss = 4528, Miss_rate = 0.720, Pending_hits = 0, Reservation_fails = 0
L2_cache_bank[45]: Access = 6181, Miss = 4480, Miss_rate = 0.725, Pending_hits = 0, Reservation_fails = 0
L2_cache_bank[46]: Access = 6292, Miss = 4514, Miss_rate = 0.717, Pending_hits = 0, Reservation_fails = 0
L2_cache_bank[47]: Access = 6163, Miss = 4416, Miss_rate = 0.717, Pending_hits = 0, Reservation_fails = 0
L2_cache_bank[48]: Access = 6191, Miss = 4454, Miss_rate = 0.719, Pending_hits = 0, Reservation_fails = 0
L2_cache_bank[49]: Access = 6358, Miss = 4528, Miss_rate = 0.712, Pending_hits = 0, Reservation_fails = 0
L2_cache_bank[50]: Access = 6358, Miss = 4556, Miss_rate = 0.717, Pending_hits = 0, Reservation_fails = 0
L2_cache_bank[51]: Access = 6290, Miss = 4488, Miss_rate = 0.714, Pending_hits = 0, Reservation_fails = 0
L2_cache_bank[52]: Access = 6213, Miss = 4374, Miss_rate = 0.704, Pending_hits = 0, Reservation_fails = 0
L2_cache_bank[53]: Access = 6211, Miss = 4430, Miss_rate = 0.713, Pending_hits = 0, Reservation_fails = 0
L2_cache_bank[54]: Access = 6272, Miss = 4552, Miss_rate = 0.726, Pending_hits = 0, Reservation_fails = 0
L2_cache_bank[55]: Access = 6189, Miss = 4440, Miss_rate = 0.717, Pending_hits = 0, Reservation_fails = 0
L2_cache_bank[56]: Access = 6297, Miss = 4582, Miss_rate = 0.728, Pending_hits = 0, Reservation_fails = 0
L2_cache_bank[57]: Access = 6258, Miss = 4534, Miss_rate = 0.725, Pending_hits = 0, Reservation_fails = 0
L2_cache_bank[58]: Access = 6304, Miss = 4528, Miss_rate = 0.718, Pending_hits = 0, Reservation_fails = 0
L2_cache_bank[59]: Access = 6543, Miss = 4746, Miss_rate = 0.725, Pending_hits = 0, Reservation_fails = 0
L2_cache_bank[60]: Access = 6413, Miss = 4612, Miss_rate = 0.719, Pending_hits = 0, Reservation_fails = 0
L2_cache_bank[61]: Access = 6298, Miss = 4558, Miss_rate = 0.724, Pending_hits = 0, Reservation_fails = 0
L2_cache_bank[62]: Access = 6392, Miss = 4590, Miss_rate = 0.718, Pending_hits = 0, Reservation_fails = 0
L2_cache_bank[63]: Access = 6261, Miss = 4516, Miss_rate = 0.721, Pending_hits = 0, Reservation_fails = 0
L2_total_cache_accesses = 405905
L2_total_cache_misses = 292162
L2_total_cache_miss_rate = 0.7198
L2_total_cache_pending_hits = 6
L2_total_cache_reservation_fails = 0
L2_total_cache_breakdown:
	L2_cache_stats_breakdown[GLOBAL_ACC_R][HIT] = 101257
	L2_cache_stats_breakdown[GLOBAL_ACC_R][HIT_RESERVED] = 6
	L2_cache_stats_breakdown[GLOBAL_ACC_R][MISS] = 124907
	L2_cache_stats_breakdown[GLOBAL_ACC_R][RESERVATION_FAIL] = 0
	L2_cache_stats_breakdown[GLOBAL_ACC_R][SECTOR_MISS] = 146967
	L2_cache_stats_breakdown[LOCAL_ACC_R][HIT] = 0
	L2_cache_stats_breakdown[LOCAL_ACC_R][HIT_RESERVED] = 0
	L2_cache_stats_breakdown[LOCAL_ACC_R][MISS] = 0
	L2_cache_stats_breakdown[LOCAL_ACC_R][RESERVATION_FAIL] = 0
	L2_cache_stats_breakdown[LOCAL_ACC_R][SECTOR_MISS] = 0
	L2_cache_stats_breakdown[CONST_ACC_R][HIT] = 0
	L2_cache_stats_breakdown[CONST_ACC_R][HIT_RESERVED] = 0
	L2_cache_stats_breakdown[CONST_ACC_R][MISS] = 0
	L2_cache_stats_breakdown[CONST_ACC_R][RESERVATION_FAIL] = 0
	L2_cache_stats_breakdown[CONST_ACC_R][SECTOR_MISS] = 0
	L2_cache_stats_breakdown[TEXTURE_ACC_R][HIT] = 0
	L2_cache_stats_breakdown[TEXTURE_ACC_R][HIT_RESERVED] = 0
	L2_cache_stats_breakdown[TEXTURE_ACC_R][MISS] = 0
	L2_cache_stats_breakdown[TEXTURE_ACC_R][RESERVATION_FAIL] = 0
	L2_cache_stats_breakdown[TEXTURE_ACC_R][SECTOR_MISS] = 0
	L2_cache_stats_breakdown[GLOBAL_ACC_W][HIT] = 12480
	L2_cache_stats_breakdown[GLOBAL_ACC_W][HIT_RESERVED] = 0
	L2_cache_stats_breakdown[GLOBAL_ACC_W][MISS] = 2536
	L2_cache_stats_breakdown[GLOBAL_ACC_W][RESERVATION_FAIL] = 0
	L2_cache_stats_breakdown[GLOBAL_ACC_W][SECTOR_MISS] = 17752
	L2_cache_stats_breakdown[LOCAL_ACC_W][HIT] = 0
	L2_cache_stats_breakdown[LOCAL_ACC_W][HIT_RESERVED] = 0
	L2_cache_stats_breakdown[LOCAL_ACC_W][MISS] = 0
	L2_cache_stats_breakdown[LOCAL_ACC_W][RESERVATION_FAIL] = 0
	L2_cache_stats_breakdown[LOCAL_ACC_W][SECTOR_MISS] = 0
	L2_cache_stats_breakdown[L1_WRBK_ACC][HIT] = 0
	L2_cache_stats_breakdown[L1_WRBK_ACC][HIT_RESERVED] = 0
	L2_cache_stats_breakdown[L1_WRBK_ACC][MISS] = 0
	L2_cache_stats_breakdown[L1_WRBK_ACC][RESERVATION_FAIL] = 0
	L2_cache_stats_breakdown[L1_WRBK_ACC][SECTOR_MISS] = 0
	L2_cache_stats_breakdown[L2_WRBK_ACC][HIT] = 0
	L2_cache_stats_breakdown[L2_WRBK_ACC][HIT_RESERVED] = 0
	L2_cache_stats_breakdown[L2_WRBK_ACC][MISS] = 0
	L2_cache_stats_breakdown[L2_WRBK_ACC][RESERVATION_FAIL] = 0
	L2_cache_stats_breakdown[L2_WRBK_ACC][SECTOR_MISS] = 0
	L2_cache_stats_breakdown[INST_ACC_R][HIT] = 0
	L2_cache_stats_breakdown[INST_ACC_R][HIT_RESERVED] = 0
	L2_cache_stats_breakdown[INST_ACC_R][MISS] = 0
	L2_cache_stats_breakdown[INST_ACC_R][RESERVATION_FAIL] = 0
	L2_cache_stats_breakdown[INST_ACC_R][SECTOR_MISS] = 0
	L2_cache_stats_breakdown[L1_WR_ALLOC_R][HIT] = 0
	L2_cache_stats_breakdown[L1_WR_ALLOC_R][HIT_RESERVED] = 0
	L2_cache_stats_breakdown[L1_WR_ALLOC_R][MISS] = 0
	L2_cache_stats_breakdown[L1_WR_ALLOC_R][RESERVATION_FAIL] = 0
	L2_cache_stats_breakdown[L1_WR_ALLOC_R][SECTOR_MISS] = 0
	L2_cache_stats_breakdown[L2_WR_ALLOC_R][HIT] = 0
	L2_cache_stats_breakdown[L2_WR_ALLOC_R][HIT_RESERVED] = 0
	L2_cache_stats_breakdown[L2_WR_ALLOC_R][MISS] = 0
	L2_cache_stats_breakdown[L2_WR_ALLOC_R][RESERVATION_FAIL] = 0
	L2_cache_stats_breakdown[L2_WR_ALLOC_R][SECTOR_MISS] = 0
	L2_cache_stats_breakdown[GLOBAL_ACC_R][TOTAL_ACCESS] = 373137
	L2_cache_stats_breakdown[GLOBAL_ACC_W][TOTAL_ACCESS] = 32768
L2_total_cache_reservation_fail_breakdown:
L2_cache_data_port_util = 0.006
L2_cache_fill_port_util = 0.015

icnt_total_pkts_mem_to_simt=405905
icnt_total_pkts_simt_to_mem=405905
LD_mem_lat_dist  0 0 0 0 0 0 0 0 0 0 0 0 0 0 0 0 0 0 0 0 0 0 0 0 0 0 0
ST_mem_lat_dist  0 0 0 0 0 0 0 0 0 0 0 0 0 0 0 0 0 0 0 0 0 0 0 0 0 0 0
----------------------------Interconnect-DETAILS--------------------------------
Req_Network_injected_packets_num = 405905
Req_Network_cycles = 282053
Req_Network_injected_packets_per_cycle =       1.4391 
Req_Network_conflicts_per_cycle =       0.0186
Req_Network_conflicts_per_cycle_util =       0.0269
Req_Bank_Level_Parallism =       2.0859
Req_Network_in_buffer_full_per_cycle =       0.0000
Req_Network_in_buffer_avg_util =       0.0004
Req_Network_out_buffer_full_per_cycle =       0.0000
Req_Network_out_buffer_avg_util =       0.0225

Reply_Network_injected_packets_num = 405905
Reply_Network_cycles = 282053
Reply_Network_injected_packets_per_cycle =        1.4391
Reply_Network_conflicts_per_cycle =        0.5294
Reply_Network_conflicts_per_cycle_util =       0.7772
Reply_Bank_Level_Parallism =       2.1128
Reply_Network_in_buffer_full_per_cycle =       0.0000
Reply_Network_in_buffer_avg_util =       0.0089
Reply_Network_out_buffer_full_per_cycle =       0.0000
Reply_Network_out_buffer_avg_util =       0.0180
----------------------------END-of-Interconnect-DETAILS-------------------------


gpgpu_simulation_time = 0 days, 0 hrs, 12 min, 6 sec (726 sec)
gpgpu_simulation_rate = 23741 (inst/sec)
gpgpu_simulation_rate = 388 (cycle/sec)
gpgpu_silicon_slowdown = 2917525x
GPGPU-Sim: detected inactive GPU simulation thread

total_us: 1 laps, 671605532 us


gen_hists: 1 laps, 671605532.000000 us/lap, 83950691.500000 us/cta

GPGPU-Sim: synchronize waiting for inactive GPU simulation
GPGPU-Sim API: Stream Manager State
GPGPU-Sim API:    stream 1 has 1 operations
GPGPU-Sim API:       0 :  stream operation memcpy device-to-host
GPGPU-Sim: detected inactive GPU simulation thread
GPGPU-Sim: *** exit detected ***
