

        *** GPGPU-Sim Simulator Version 4.0.0  [build gpgpu-sim_git-commit-_modified_0.0] ***


GPGPU-Sim PTX: simulation mode 0 (can change with PTX_SIM_MODE_FUNC environment variable:
               1=functional simulation only, 0=detailed performance simulator)
GPGPU-Sim PTX: overriding embedded ptx with ptx file (PTX_SIM_USE_PTX_FILE is set)
GPGPU-Sim: Configuration options:

-save_embedded_ptx                      0 # saves ptx files embedded in binary as <n>.ptx
-keep                                   0 # keep intermediate files created by GPGPU-Sim when interfacing with external programs
-gpgpu_ptx_save_converted_ptxplus                    0 # Saved converted ptxplus to a file
-gpgpu_occupancy_sm_number                   70 # The SM number to pass to ptxas when getting register usage for computing GPU occupancy. This parameter is required in the config.
-ptx_opcode_latency_int      4,13,4,5,145,21 # Opcode latencies for integers <ADD,MAX,MUL,MAD,DIV,SHFL>Default 1,1,19,25,145,32
-ptx_opcode_latency_fp          4,13,4,5,39 # Opcode latencies for single precision floating points <ADD,MAX,MUL,MAD,DIV>Default 1,1,1,1,30
-ptx_opcode_latency_dp         8,19,8,8,330 # Opcode latencies for double precision floating points <ADD,MAX,MUL,MAD,DIV>Default 8,8,8,8,335
-ptx_opcode_latency_sfu                  100 # Opcode latencies for SFU instructionsDefault 8
-ptx_opcode_latency_tesnor                   64 # Opcode latencies for Tensor instructionsDefault 64
-ptx_opcode_initiation_int          2,2,2,2,8,4 # Opcode initiation intervals for integers <ADD,MAX,MUL,MAD,DIV,SHFL>Default 1,1,4,4,32,4
-ptx_opcode_initiation_fp            2,2,2,2,4 # Opcode initiation intervals for single precision floating points <ADD,MAX,MUL,MAD,DIV>Default 1,1,1,1,5
-ptx_opcode_initiation_dp          4,4,4,4,130 # Opcode initiation intervals for double precision floating points <ADD,MAX,MUL,MAD,DIV>Default 8,8,8,8,130
-ptx_opcode_initiation_sfu                    8 # Opcode initiation intervals for sfu instructionsDefault 8
-ptx_opcode_initiation_tensor                   64 # Opcode initiation intervals for tensor instructionsDefault 64
-cdp_latency         7200,8000,100,12000,1600 # CDP API latency <cudaStreamCreateWithFlags, cudaGetParameterBufferV2_init_perWarp, cudaGetParameterBufferV2_perKernel, cudaLaunchDeviceV2_init_perWarp, cudaLaunchDevicV2_perKernel>Default 7200,8000,100,12000,1600
-network_mode                           2 # Interconnection network mode
-inter_config_file                   mesh # Interconnection network config file
-icnt_in_buffer_limit                  512 # in_buffer_limit
-icnt_out_buffer_limit                  512 # out_buffer_limit
-icnt_subnets                           2 # subnets
-icnt_arbiter_algo                      1 # arbiter_algo
-icnt_verbose                           0 # inct_verbose
-icnt_grant_cycles                      1 # grant_cycles
-gpgpu_ptx_use_cuobjdump                    1 # Use cuobjdump to extract ptx and sass from binaries
-gpgpu_experimental_lib_support                    0 # Try to extract code from cuda libraries [Broken because of unknown cudaGetExportTable]
-checkpoint_option                      0 #  checkpointing flag (0 = no checkpoint)
-checkpoint_kernel                      1 #  checkpointing during execution of which kernel (1- 1st kernel)
-checkpoint_CTA                         0 #  checkpointing after # of CTA (< less than total CTA)
-resume_option                          0 #  resume flag (0 = no resume)
-resume_kernel                          0 #  Resume from which kernel (1= 1st kernel)
-resume_CTA                             0 #  resume from which CTA 
-checkpoint_CTA_t                       0 #  resume from which CTA 
-checkpoint_insn_Y                      0 #  resume from which CTA 
-gpgpu_ptx_convert_to_ptxplus                    0 # Convert SASS (native ISA) to ptxplus and run ptxplus
-gpgpu_ptx_force_max_capability                   70 # Force maximum compute capability
-gpgpu_ptx_inst_debug_to_file                    0 # Dump executed instructions' debug information to file
-gpgpu_ptx_inst_debug_file       inst_debug.txt # Executed instructions' debug output file
-gpgpu_ptx_inst_debug_thread_uid                    1 # Thread UID for executed instructions' debug output
-gpgpu_n_mem_for_l2wb_pcommit                   32 # number of memory modules (e.g. memory controllers) in gpu
-gpgpu_n_sub_partition_per_mchannel_for_l2wb_pcommit                    2 # number of memory subpartition in each memory module
-gpgpu_dl2_bsize_for_l2wb_pcommit                  128 # default 128 bytes
-gpgpu_simd_model                       1 # 1 = post-dominator
-gpgpu_shader_core_pipeline              2048:32 # shader core pipeline config, i.e., {<nthread>:<warpsize>}
-gpgpu_tex_cache:l1  N:4:128:256,L:R:m:N:L,T:512:8,128:2 # per-shader L1 texture cache  (READ-ONLY) config  {<nsets>:<bsize>:<assoc>,<rep>:<wr>:<alloc>:<wr_alloc>,<mshr>:<N>:<merge>,<mq>:<rf>}
-gpgpu_const_cache:l1 N:128:64:8,L:R:f:N:L,S:2:64,4 # per-shader L1 constant memory cache  (READ-ONLY) config  {<nsets>:<bsize>:<assoc>,<rep>:<wr>:<alloc>:<wr_alloc>,<mshr>:<N>:<merge>,<mq>} 
-gpgpu_cache:il1     N:64:128:16,L:R:f:N:L,S:2:48,4 # shader L1 instruction cache config  {<nsets>:<bsize>:<assoc>,<rep>:<wr>:<alloc>:<wr_alloc>,<mshr>:<N>:<merge>,<mq>} 
-gpgpu_cache:dl1     S:1:128:256,L:L:s:N:L,A:256:8,16:0,32 # per-shader L1 data cache config  {<nsets>:<bsize>:<assoc>,<rep>:<wr>:<alloc>:<wr_alloc>,<mshr>:<N>:<merge>,<mq> | none}
-gpgpu_l1_banks                         4 # The number of L1 cache banks
-gpgpu_l1_banks_byte_interleaving                   32 # l1 banks byte interleaving granularity
-gpgpu_l1_banks_hashing_function                    0 # l1 banks hashing function
-gpgpu_l1_latency                      20 # L1 Hit Latency
-gpgpu_smem_latency                    20 # smem Latency
-gpgpu_cache:dl1PrefL1                 none # per-shader L1 data cache config  {<nsets>:<bsize>:<assoc>,<rep>:<wr>:<alloc>:<wr_alloc>,<mshr>:<N>:<merge>,<mq> | none}
-gpgpu_cache:dl1PrefShared                 none # per-shader L1 data cache config  {<nsets>:<bsize>:<assoc>,<rep>:<wr>:<alloc>:<wr_alloc>,<mshr>:<N>:<merge>,<mq> | none}
-gpgpu_gmem_skip_L1D                    0 # global memory access skip L1D cache (implements -Xptxas -dlcm=cg, default=no skip)
-gpgpu_perfect_mem                      0 # enable perfect memory mode (no cache miss)
-n_regfile_gating_group                    4 # group of lanes that should be read/written together)
-gpgpu_clock_gated_reg_file                    0 # enable clock gated reg file for power calculations
-gpgpu_clock_gated_lanes                    0 # enable clock gated lanes for power calculations
-gpgpu_shader_registers                65536 # Number of registers per shader core. Limits number of concurrent CTAs. (default 8192)
-gpgpu_registers_per_block                65536 # Maximum number of registers per CTA. (default 8192)
-gpgpu_ignore_resources_limitation                    0 # gpgpu_ignore_resources_limitation (default 0)
-gpgpu_shader_cta                      32 # Maximum number of concurrent CTAs in shader (default 8)
-gpgpu_num_cta_barriers                   16 # Maximum number of named barriers per CTA (default 16)
-gpgpu_n_clusters                      80 # number of processing clusters
-gpgpu_n_cores_per_cluster                    1 # number of simd cores per cluster
-gpgpu_n_cluster_ejection_buffer_size                   32 # number of packets in ejection buffer
-gpgpu_n_ldst_response_buffer_size                    2 # number of response packets in ld/st unit ejection buffer
-gpgpu_shmem_per_block                65536 # Size of shared memory per thread block or CTA (default 48kB)
-gpgpu_shmem_size                   98304 # Size of shared memory per shader core (default 16kB)
-gpgpu_adaptive_cache_config            536870913 # adaptive_cache_config
-gpgpu_shmem_sizeDefault                98304 # Size of shared memory per shader core (default 16kB)
-gpgpu_shmem_size_PrefL1                16384 # Size of shared memory per shader core (default 16kB)
-gpgpu_shmem_size_PrefShared                16384 # Size of shared memory per shader core (default 16kB)
-gpgpu_shmem_num_banks                   32 # Number of banks in the shared memory in each shader core (default 16)
-gpgpu_shmem_limited_broadcast                    0 # Limit shared memory to do one broadcast per cycle (default on)
-gpgpu_shmem_warp_parts                    1 # Number of portions a warp is divided into for shared memory bank conflict check 
-gpgpu_mem_unit_ports                    1 # The number of memory transactions allowed per core cycle
-gpgpu_shmem_warp_parts                    1 # Number of portions a warp is divided into for shared memory bank conflict check 
-gpgpu_warpdistro_shader                   -1 # Specify which shader core to collect the warp size distribution from
-gpgpu_warp_issue_shader                    0 # Specify which shader core to collect the warp issue distribution from
-gpgpu_local_mem_map                    1 # Mapping from local memory space address to simulated GPU physical address space (default = enabled)
-gpgpu_num_reg_banks                   16 # Number of register banks (default = 8)
-gpgpu_reg_bank_use_warp_id                    0 # Use warp ID in mapping registers to banks (default = off)
-gpgpu_sub_core_model                    1 # Sub Core Volta/Pascal model (default = off)
-gpgpu_enable_specialized_operand_collector                    0 # enable_specialized_operand_collector
-gpgpu_operand_collector_num_units_sp                    4 # number of collector units (default = 4)
-gpgpu_operand_collector_num_units_dp                    0 # number of collector units (default = 0)
-gpgpu_operand_collector_num_units_sfu                    4 # number of collector units (default = 4)
-gpgpu_operand_collector_num_units_int                    0 # number of collector units (default = 0)
-gpgpu_operand_collector_num_units_tensor_core                    4 # number of collector units (default = 4)
-gpgpu_operand_collector_num_units_mem                    2 # number of collector units (default = 2)
-gpgpu_operand_collector_num_units_gen                    8 # number of collector units (default = 0)
-gpgpu_operand_collector_num_in_ports_sp                    1 # number of collector unit in ports (default = 1)
-gpgpu_operand_collector_num_in_ports_dp                    0 # number of collector unit in ports (default = 0)
-gpgpu_operand_collector_num_in_ports_sfu                    1 # number of collector unit in ports (default = 1)
-gpgpu_operand_collector_num_in_ports_int                    0 # number of collector unit in ports (default = 0)
-gpgpu_operand_collector_num_in_ports_tensor_core                    1 # number of collector unit in ports (default = 1)
-gpgpu_operand_collector_num_in_ports_mem                    1 # number of collector unit in ports (default = 1)
-gpgpu_operand_collector_num_in_ports_gen                    8 # number of collector unit in ports (default = 0)
-gpgpu_operand_collector_num_out_ports_sp                    1 # number of collector unit in ports (default = 1)
-gpgpu_operand_collector_num_out_ports_dp                    0 # number of collector unit in ports (default = 0)
-gpgpu_operand_collector_num_out_ports_sfu                    1 # number of collector unit in ports (default = 1)
-gpgpu_operand_collector_num_out_ports_int                    0 # number of collector unit in ports (default = 0)
-gpgpu_operand_collector_num_out_ports_tensor_core                    1 # number of collector unit in ports (default = 1)
-gpgpu_operand_collector_num_out_ports_mem                    1 # number of collector unit in ports (default = 1)
-gpgpu_operand_collector_num_out_ports_gen                    8 # number of collector unit in ports (default = 0)
-gpgpu_coalesce_arch                   60 # Coalescing arch (GT200 = 13, Fermi = 20)
-gpgpu_num_sched_per_core                    4 # Number of warp schedulers per core
-gpgpu_max_insn_issue_per_warp                    1 # Max number of instructions that can be issued per warp in one cycle by scheduler (either 1 or 2)
-gpgpu_dual_issue_diff_exec_units                    1 # should dual issue use two different execution unit resources (Default = 1)
-gpgpu_simt_core_sim_order                    1 # Select the simulation order of cores in a cluster (0=Fix, 1=Round-Robin)
-gpgpu_pipeline_widths 4,4,4,4,4,4,4,4,4,4,8,4,4 # Pipeline widths ID_OC_SP,ID_OC_DP,ID_OC_INT,ID_OC_SFU,ID_OC_MEM,OC_EX_SP,OC_EX_DP,OC_EX_INT,OC_EX_SFU,OC_EX_MEM,EX_WB,ID_OC_TENSOR_CORE,OC_EX_TENSOR_CORE
-gpgpu_tensor_core_avail                    1 # Tensor Core Available (default=0)
-gpgpu_num_sp_units                     4 # Number of SP units (default=1)
-gpgpu_num_dp_units                     4 # Number of DP units (default=0)
-gpgpu_num_int_units                    4 # Number of INT units (default=0)
-gpgpu_num_sfu_units                    4 # Number of SF units (default=1)
-gpgpu_num_tensor_core_units                    4 # Number of tensor_core units (default=1)
-gpgpu_num_mem_units                    1 # Number if ldst units (default=1) WARNING: not hooked up to anything
-gpgpu_scheduler                      gto # Scheduler configuration: < lrr | gto | two_level_active > If two_level_active:<num_active_warps>:<inner_prioritization>:<outer_prioritization>For complete list of prioritization values see shader.h enum scheduler_prioritization_typeDefault: gto
-gpgpu_concurrent_kernel_sm                    0 # Support concurrent kernels on a SM (default = disabled)
-gpgpu_perfect_inst_const_cache                    1 # perfect inst and const cache mode, so all inst and const hits in the cache(default = disabled)
-gpgpu_inst_fetch_throughput                    4 # the number of fetched intruction per warp each cycle
-gpgpu_reg_file_port_throughput                    2 # the number ports of the register file
-specialized_unit_1         0,4,4,4,4,BRA # specialized unit config {<enabled>,<num_units>:<latency>:<initiation>,<ID_OC_SPEC>:<OC_EX_SPEC>,<NAME>}
-specialized_unit_2         0,4,4,4,4,BRA # specialized unit config {<enabled>,<num_units>:<latency>:<initiation>,<ID_OC_SPEC>:<OC_EX_SPEC>,<NAME>}
-specialized_unit_3         0,4,4,4,4,BRA # specialized unit config {<enabled>,<num_units>:<latency>:<initiation>,<ID_OC_SPEC>:<OC_EX_SPEC>,<NAME>}
-specialized_unit_4         0,4,4,4,4,BRA # specialized unit config {<enabled>,<num_units>:<latency>:<initiation>,<ID_OC_SPEC>:<OC_EX_SPEC>,<NAME>}
-specialized_unit_5         0,4,4,4,4,BRA # specialized unit config {<enabled>,<num_units>:<latency>:<initiation>,<ID_OC_SPEC>:<OC_EX_SPEC>,<NAME>}
-specialized_unit_6         0,4,4,4,4,BRA # specialized unit config {<enabled>,<num_units>:<latency>:<initiation>,<ID_OC_SPEC>:<OC_EX_SPEC>,<NAME>}
-specialized_unit_7         0,4,4,4,4,BRA # specialized unit config {<enabled>,<num_units>:<latency>:<initiation>,<ID_OC_SPEC>:<OC_EX_SPEC>,<NAME>}
-specialized_unit_8         0,4,4,4,4,BRA # specialized unit config {<enabled>,<num_units>:<latency>:<initiation>,<ID_OC_SPEC>:<OC_EX_SPEC>,<NAME>}
-gpgpu_perf_sim_memcpy                    1 # Fill the L2 cache on memcpy
-gpgpu_simple_dram_model                    0 # simple_dram_model with fixed latency and BW
-gpgpu_dram_scheduler                    1 # 0 = fifo, 1 = FR-FCFS (defaul)
-gpgpu_dram_partition_queues          64:64:64:64 # i2$:$2d:d2$:$2i
-l2_ideal                               0 # Use a ideal L2 cache that always hit
-gpgpu_cache:dl2     S:32:128:24,L:B:m:L:P,A:192:4,32:0,32 # unified banked L2 data cache config  {<nsets>:<bsize>:<assoc>,<rep>:<wr>:<alloc>:<wr_alloc>,<mshr>:<N>:<merge>,<mq>}
-gpgpu_cache:dl2_texture_only                    0 # L2 cache used for texture only
-gpgpu_n_mem                           32 # number of memory modules (e.g. memory controllers) in gpu
-gpgpu_n_sub_partition_per_mchannel                    2 # number of memory subpartition in each memory module
-gpgpu_n_mem_per_ctrlr                    1 # number of memory chips per memory controller
-gpgpu_memlatency_stat                   14 # track and display latency statistics 0x2 enables MC, 0x4 enables queue logs
-gpgpu_frfcfs_dram_sched_queue_size                   64 # 0 = unlimited (default); # entries per chip
-gpgpu_dram_return_queue_size                  192 # 0 = unlimited (default); # entries per chip
-gpgpu_dram_buswidth                   16 # default = 4 bytes (8 bytes per cycle at DDR)
-gpgpu_dram_burst_length                    2 # Burst length of each DRAM request (default = 4 data bus cycle)
-dram_data_command_freq_ratio                    2 # Frequency ratio between DRAM data bus and command bus (default = 2 times, i.e. DDR)
-gpgpu_dram_timing_opt nbk=16:CCD=1:RRD=3:RCD=12:RAS=28:RP=12:RC=40: CL=12:WL=2:CDLR=3:WR=10:nbkgrp=4:CCDL=2:RTPL=3 # DRAM timing parameters = {nbk:tCCD:tRRD:tRCD:tRAS:tRP:tRC:CL:WL:tCDLR:tWR:nbkgrp:tCCDL:tRTPL}
-gpgpu_l2_rop_latency                  160 # ROP queue latency (default 85)
-dram_latency                         200 # DRAM latency (default 30)
-dram_write_latency                   600 # DRAM write latency (default 100)
-dram_dual_bus_interface                    1 # dual_bus_interface (default = 0) 
-dram_bnk_indexing_policy                    0 # dram_bnk_indexing_policy (0 = normal indexing, 1 = Xoring with the higher bits) (Default = 0)
-dram_bnkgrp_indexing_policy                    1 # dram_bnkgrp_indexing_policy (0 = take higher bits, 1 = take lower bits) (Default = 0)
-dram_seperate_write_queue_enable                    0 # Seperate_Write_Queue_Enable
-dram_write_queue_size             32:28:16 # Write_Queue_Size
-dram_elimnate_rw_turnaround                    0 # elimnate_rw_turnaround i.e set tWTR and tRTW = 0
-icnt_flit_size                        40 # icnt_flit_size
-gpgpu_mem_addr_mapping dramid@8;00000000.00000000.00000000.00000000.0000RRRR.RRRRRRRR.RBBBCCCB.CCCSSSSS # mapping memory address to dram model {dramid@<start bit>;<memory address map>}
-gpgpu_mem_addr_test                    0 # run sweep test to check address mapping for aliased address
-gpgpu_mem_address_mask                    1 # 0 = old addressing mask, 1 = new addressing mask, 2 = new add. mask + flipped bank sel and chip sel bits
-gpgpu_memory_partition_indexing                    0 # 0 = no indexing, 1 = bitwise xoring, 2 = IPoly, 3 = custom indexing
-gpuwattch_xml_file         gpuwattch.xml # GPUWattch XML file
-power_simulation_enabled                    0 # Turn on power simulator (1=On, 0=Off)
-power_per_cycle_dump                    0 # Dump detailed power output each cycle
-power_trace_enabled                    0 # produce a file for the power trace (1=On, 0=Off)
-power_trace_zlevel                     6 # Compression level of the power trace output log (0=no comp, 9=highest)
-steady_power_levels_enabled                    0 # produce a file for the steady power levels (1=On, 0=Off)
-steady_state_definition                  8:4 # allowed deviation:number of samples
-gpgpu_max_cycle                        0 # terminates gpu simulation early (0 = no limit)
-gpgpu_max_insn                         0 # terminates gpu simulation early (0 = no limit)
-gpgpu_max_cta                          0 # terminates gpu simulation early (0 = no limit)
-gpgpu_max_completed_cta                    0 # terminates gpu simulation early (0 = no limit)
-gpgpu_runtime_stat                   500 # display runtime statistics such as dram utilization {<freq>:<flag>}
-liveness_message_freq                    1 # Minimum number of seconds between simulation liveness messages (0 = always print)
-gpgpu_compute_capability_major                    7 # Major compute capability version number
-gpgpu_compute_capability_minor                    0 # Minor compute capability version number
-gpgpu_flush_l1_cache                    1 # Flush L1 cache at the end of each kernel call
-gpgpu_flush_l2_cache                    0 # Flush L2 cache at the end of each kernel call
-gpgpu_deadlock_detect                    1 # Stop the simulation at deadlock (1=on (default), 0=off)
-gpgpu_ptx_instruction_classification                    0 # if enabled will classify ptx instruction types per kernel (Max 255 kernels now)
-gpgpu_ptx_sim_mode                     0 # Select between Performance (default) or Functional simulation (1)
-gpgpu_clock_domains 1132.0:1132.0:1132.0:850.0 # Clock Domain Frequencies in MhZ {<Core Clock>:<ICNT Clock>:<L2 Clock>:<DRAM Clock>}
-gpgpu_max_concurrent_kernel                    8 # maximum kernels that can run concurrently on GPU
-gpgpu_cflog_interval                    0 # Interval between each snapshot in control flow logger
-visualizer_enabled               a89ae6a2f6217ce426980a959c61b9bf  /home/pli11/Desktop/re_test/megakv/search/run
Extracting PTX file and ptxas options    1: run.1.sm_70.ptx -arch=sm_70
      0 # Turn on visualizer output (1=On, 0=Off)
-visualizer_outputfile                 NULL # Specifies the output log file for visualizer
-visualizer_zlevel                      6 # Compression level of the visualizer output log (0=no comp, 9=highest)
-gpgpu_stack_size_limit                 1024 # GPU thread stack size
-gpgpu_heap_size_limit              8388608 # GPU malloc heap size 
-gpgpu_runtime_sync_depth_limit                    2 # GPU device runtime synchronize depth
-gpgpu_runtime_pending_launch_count_limit                 2048 # GPU device runtime pending launch count
-trace_enabled                          0 # Turn on traces
-trace_components                    none # comma seperated list of traces to enable. Complete list found in trace_streams.tup. Default none
-trace_sampling_core                    0 # The core which is printed using CORE_DPRINTF. Default 0
-trace_sampling_memory_partition                   -1 # The memory partition which is printed using MEMPART_DPRINTF. Default -1 (i.e. all)
-enable_ptx_file_line_stats                    1 # Turn on PTX source line statistic profiling. (1 = On)
-ptx_line_stats_filename gpgpu_inst_stats.txt # Output file for PTX source line statistics.
-gpgpu_kernel_launch_latency                 5000 # Kernel launch latency in cycles. Default: 0
-gpgpu_cdp_enabled                      0 # Turn on CDP
-gpgpu_TB_launch_latency                    0 # thread block launch latency in cycles. Default: 0
DRAM Timing Options:
nbk                                    16 # number of banks
CCD                                     1 # column to column delay
RRD                                     3 # minimal delay between activation of rows in different banks
RCD                                    12 # row to column delay
RAS                                    28 # time needed to activate row
RP                                     12 # time needed to precharge (deactivate) row
RC                                     40 # row cycle time
CDLR                                    3 # switching from write to read (changes tWTR)
WR                                     10 # last data-in to row precharge
CL                                     12 # CAS latency
WL                                      2 # Write latency
nbkgrp                                  4 # number of bank groups
CCDL                                    2 # column to column delay between accesses to different bank groups
RTPL                                    3 # read to precharge delay between accesses to different bank groups
Total number of memory sub partition = 64
addr_dec_mask[CHIP]  = 0000000000001f00 	high:13 low:8
addr_dec_mask[BK]    = 00000000000e2000 	high:20 low:13
addr_dec_mask[ROW]   = 00000001fff00000 	high:33 low:20
addr_dec_mask[COL]   = 000000000001c0ff 	high:17 low:0
addr_dec_mask[BURST] = 000000000000001f 	high:5 low:0
sub_partition_id_mask = 0000000000002000
GPGPU-Sim uArch: clock freqs: 1132000000.000000:1132000000.000000:1132000000.000000:850000000.000000
GPGPU-Sim uArch: clock periods: 0.00000000088339222615:0.00000000088339222615:0.00000000088339222615:0.00000000117647058824
*** Initializing Memory Statistics ***
GPGPU-Sim uArch: performance model initialization complete.
self exe links to: /home/pli11/Desktop/re_test/megakv/search/run
self exe links to: /home/pli11/Desktop/re_test/megakv/search/run
10.1
GPGPU-Sim PTX: __cudaRegisterFatBinary, fat_cubin_handle = 1, filename=default
self exe links to: /home/pli11/Desktop/re_test/megakv/search/run
Running md5sum using "md5sum /home/pli11/Desktop/re_test/megakv/search/run "
self exe links to: /home/pli11/Desktop/re_test/megakv/search/run
Extracting specific PTX file named run.1.sm_70.ptx 
GPGPU-Sim PTX: __cudaRegisterFunction _Z11hash_searchP7selem_sPjP8bucket_sii : hostFun 0x0x40277b, fat_cubin_handle = 1
GPGPU-Sim PTX: Parsing run.1.sm_70.ptx
GPGPU-Sim PTX: instruction assembly for function '_Z16hash_search_nvmbP7selem_sPjP8bucket_sii'...   done.
GPGPU-Sim PTX: instruction assembly for function '_Z16hash_search_nvmoP7selem_sPjP8bucket_sii'...   done.
GPGPU-Sim PTX: instruction assembly for function '_Z16hash_search_nvmuP7selem_sPjP8bucket_sii'...   done.
GPGPU-Sim PTX: instruction assembly for function '_Z11kernel_l2wbv'...   done.
GPGPU-Sim PTX: instruction assembly for function '_Z15kernel_l2wb_pctv'...   done.
GPGPU-Sim PTX: instruction assembly for function '_Z11hash_searchP7selem_sPjP8bucket_sii'...   done.
GPGPU-Sim PTX: finished parsing EMBEDDED .ptx file run.1.sm_70.ptx
GPGPU-Sim PTX: loading globals with explicit initializers... 
GPGPU-Sim PTX: finished loading globals (0 bytes total).
GPGPU-Sim PTX: loading constants with explicit initializers...  done.
GPGPU-Sim PTX: Loading PTXInfo from run.1.sm_70.ptx
GPGPU-Sim PTX: Kernel '_Z11hash_searchP7selem_sPjP8bucket_sii' : regs=12, lmem=0, smem=0, cmem=384
GPGPU-Sim PTX: Kernel '_Z15kernel_l2wb_pctv' : regs=8, lmem=0, smem=0, cmem=352
GPGPU-Sim PTX: Kernel '_Z11kernel_l2wbv' : regs=8, lmem=0, smem=0, cmem=352
GPGPU-Sim PTX: Kernel '_Z16hash_search_nvmuP7selem_sPjP8bucket_sii' : regs=12, lmem=0, smem=0, cmem=384
GPGPU-Sim PTX: Kernel '_Z16hash_search_nvmoP7selem_sPjP8bucket_sii' : regs=12, lmem=0, smem=0, cmem=384
GPGPU-Sim PTX: Kernel '_Z16hash_search_nvmbP7selem_sPjP8bucket_sii' : regs=16, lmem=0, smem=0, cmem=384
GPGPU-Sim PTX: __cudaRegisterFunction _Z15kernel_l2wb_pctv : hostFun 0x0x402611, fat_cubin_handle = 1
GPGPU-Sim PTX: __cudaRegisterFunction _Z11kernel_l2wbv : hostFun 0x0x402517, fat_cubin_handle = 1
GPGPU-Sim PTX: __cudaRegisterFunction _Z16hash_search_nvmuP7selem_sPjP8bucket_sii : hostFun 0x0x4023ee, fat_cubin_handle = 1
GPGPU-Sim PTX: __cudaRegisterFunction _Z16hash_search_nvmoP7selem_sPjP8bucket_sii : hostFun 0x0x402255, fat_cubin_handle = 1
GPGPU-Sim PTX: __cudaRegisterFunction _Z16hash_search_nvmbP7selem_sPjP8bucket_sii : hostFun 0x0x4020bc, fat_cubin_handle = 1
GPGPU-Sim PTX: cudaStreamCreate
GPGPU-Sim: synchronize waiting for inactive GPU simulation
GPGPU-Sim API: Stream Manager State
GPGPU-Sim: detected inactive GPU simulation thread
GPGPU-Sim: synchronize waiting for inactive GPU simulation
GPGPU-Sim API: Stream Manager State
GPGPU-Sim API:    stream 1 has 1 operations
GPGPU-Sim API:       0 :  stream operation memcpy host-to-device
GPGPU-Sim: detected inactive GPU simulation thread
GPGPU-Sim PTX: Setting up arguments for 8 bytes starting at 0x7ffdad283e58..
GPGPU-Sim PTX: Setting up arguments for 8 bytes starting at 0x7ffdad283e50..
GPGPU-Sim PTX: Setting up arguments for 8 bytes starting at 0x7ffdad283e48..
GPGPU-Sim PTX: Setting up arguments for 4 bytes starting at 0x7ffdad283e44..
GPGPU-Sim PTX: Setting up arguments for 4 bytes starting at 0x7ffdad283e40..

GPGPU-Sim PTX: cudaLaunch for 0x0x40277b (mode=performance simulation) on stream 1
GPGPU-Sim PTX: finding reconvergence points for '_Z11hash_searchP7selem_sPjP8bucket_sii'...
GPGPU-Sim PTX: Finding dominators for '_Z11hash_searchP7selem_sPjP8bucket_sii'...
GPGPU-Sim PTX: Finding immediate dominators for '_Z11hash_searchP7selem_sPjP8bucket_sii'...
GPGPU-Sim PTX: Finding postdominators for '_Z11hash_searchP7selem_sPjP8bucket_sii'...
GPGPU-Sim PTX: Finding immediate postdominators for '_Z11hash_searchP7selem_sPjP8bucket_sii'...
GPGPU-Sim PTX: pre-decoding instructions for '_Z11hash_searchP7selem_sPjP8bucket_sii'...
GPGPU-Sim PTX: reconvergence points for _Z11hash_searchP7selem_sPjP8bucket_sii...
GPGPU-Sim PTX:  1 (potential) branch divergence @  PC=0x848 (run.1.sm_70.ptx:451) @%p1 bra BB5_7;
GPGPU-Sim PTX:    immediate post dominator      @  PC=0x9d8 (run.1.sm_70.ptx:512) ret;
GPGPU-Sim PTX:  2 (potential) branch divergence @  PC=0x8d0 (run.1.sm_70.ptx:471) @%p2 bra BB5_4;
GPGPU-Sim PTX:    immediate post dominator      @  PC=0x918 (run.1.sm_70.ptx:483) setp.eq.s32%p3, %r44, %r43;
GPGPU-Sim PTX:  3 (potential) branch divergence @  PC=0x988 (run.1.sm_70.ptx:497) @%p5 bra BB5_6;
GPGPU-Sim PTX:    immediate post dominator      @  PC=0x9c0 (run.1.sm_70.ptx:507) add.s32 %r42, %r42, %r2;
GPGPU-Sim PTX:  4 (potential) branch divergence @  PC=0x9d0 (run.1.sm_70.ptx:509) @%p6 bra BB5_2;
GPGPU-Sim PTX:    immediate post dominator      @  PC=0x9d8 (run.1.sm_70.ptx:512) ret;
GPGPU-Sim PTX: ... end of reconvergence points for _Z11hash_searchP7selem_sPjP8bucket_sii
GPGPU-Sim PTX: ... done pre-decoding instructions for '_Z11hash_searchP7selem_sPjP8bucket_sii'.
GPGPU-Sim PTX: pushing kernel '_Z11hash_searchP7selem_sPjP8bucket_sii' to stream 1, gridDim= (8,1,1) blockDim = (1024,1,1) 
GPGPU-Sim: synchronize waiting for inactive GPU simulation
GPGPU-Sim API: Stream Manager State
GPGPU-Sim API:    stream 1 has 1 operations
GPGPU-Sim API:       0 :  stream operation kernel
GPGPU-Sim uArch: Shader 0 bind to kernel 1 '_Z11hash_searchP7selem_sPjP8bucket_sii'
GPGPU-Sim uArch: CTA/core = 2, limited by: threads
GPGPU-Sim: Reconfigure L1 cache to 128KB
GPGPU-Sim uArch: Shader 1 bind to kernel 1 '_Z11hash_searchP7selem_sPjP8bucket_sii'
GPGPU-Sim uArch: Shader 2 bind to kernel 1 '_Z11hash_searchP7selem_sPjP8bucket_sii'
GPGPU-Sim uArch: Shader 3 bind to kernel 1 '_Z11hash_searchP7selem_sPjP8bucket_sii'
GPGPU-Sim uArch: Shader 4 bind to kernel 1 '_Z11hash_searchP7selem_sPjP8bucket_sii'
GPGPU-Sim uArch: Shader 5 bind to kernel 1 '_Z11hash_searchP7selem_sPjP8bucket_sii'
GPGPU-Sim uArch: Shader 6 bind to kernel 1 '_Z11hash_searchP7selem_sPjP8bucket_sii'
GPGPU-Sim uArch: Shader 7 bind to kernel 1 '_Z11hash_searchP7selem_sPjP8bucket_sii'
Destroy streams for kernel 1: size 0
kernel_name = _Z11hash_searchP7selem_sPjP8bucket_sii 
kernel_launch_uid = 1 
gpu_sim_cycle = 192417
gpu_sim_insn = 18194432
gpu_ipc =      94.5573
gpu_tot_sim_cycle = 192417
gpu_tot_sim_insn = 18194432
gpu_tot_ipc =      94.5573
gpu_tot_issued_cta = 8
gpu_occupancy = 49.1181% 
gpu_tot_occupancy = 49.1181% 
max_total_param_size = 0
gpu_stall_dramfull = 0
gpu_stall_icnt2sh    = 0
partiton_level_parallism =       1.6177
partiton_level_parallism_total  =       1.6177
partiton_level_parallism_util =       2.0412
partiton_level_parallism_util_total  =       2.0412
L2_BW  =      58.6001 GB/Sec
L2_BW_total  =      58.6001 GB/Sec
gpu_total_sim_rate=41634

========= Core cache stats =========
L1I_cache:
	L1I_total_cache_accesses = 0
	L1I_total_cache_misses = 0
	L1I_total_cache_pending_hits = 0
	L1I_total_cache_reservation_fails = 0
L1D_cache:
	L1D_cache_core[0]: Access = 55296, Miss = 38910, Miss_rate = 0.704, Pending_hits = 0, Reservation_fails = 0
	L1D_cache_core[1]: Access = 55296, Miss = 38904, Miss_rate = 0.704, Pending_hits = 0, Reservation_fails = 0
	L1D_cache_core[2]: Access = 55296, Miss = 38910, Miss_rate = 0.704, Pending_hits = 0, Reservation_fails = 0
	L1D_cache_core[3]: Access = 55296, Miss = 38912, Miss_rate = 0.704, Pending_hits = 0, Reservation_fails = 0
	L1D_cache_core[4]: Access = 55296, Miss = 38912, Miss_rate = 0.704, Pending_hits = 0, Reservation_fails = 0
	L1D_cache_core[5]: Access = 55296, Miss = 38910, Miss_rate = 0.704, Pending_hits = 0, Reservation_fails = 0
	L1D_cache_core[6]: Access = 55296, Miss = 38910, Miss_rate = 0.704, Pending_hits = 0, Reservation_fails = 0
	L1D_cache_core[7]: Access = 55296, Miss = 38908, Miss_rate = 0.704, Pending_hits = 0, Reservation_fails = 0
	L1D_cache_core[8]: Access = 0, Miss = 0, Miss_rate = -nan, Pending_hits = 0, Reservation_fails = 0
	L1D_cache_core[9]: Access = 0, Miss = 0, Miss_rate = -nan, Pending_hits = 0, Reservation_fails = 0
	L1D_cache_core[10]: Access = 0, Miss = 0, Miss_rate = -nan, Pending_hits = 0, Reservation_fails = 0
	L1D_cache_core[11]: Access = 0, Miss = 0, Miss_rate = -nan, Pending_hits = 0, Reservation_fails = 0
	L1D_cache_core[12]: Access = 0, Miss = 0, Miss_rate = -nan, Pending_hits = 0, Reservation_fails = 0
	L1D_cache_core[13]: Access = 0, Miss = 0, Miss_rate = -nan, Pending_hits = 0, Reservation_fails = 0
	L1D_cache_core[14]: Access = 0, Miss = 0, Miss_rate = -nan, Pending_hits = 0, Reservation_fails = 0
	L1D_cache_core[15]: Access = 0, Miss = 0, Miss_rate = -nan, Pending_hits = 0, Reservation_fails = 0
	L1D_cache_core[16]: Access = 0, Miss = 0, Miss_rate = -nan, Pending_hits = 0, Reservation_fails = 0
	L1D_cache_core[17]: Access = 0, Miss = 0, Miss_rate = -nan, Pending_hits = 0, Reservation_fails = 0
	L1D_cache_core[18]: Access = 0, Miss = 0, Miss_rate = -nan, Pending_hits = 0, Reservation_fails = 0
	L1D_cache_core[19]: Access = 0, Miss = 0, Miss_rate = -nan, Pending_hits = 0, Reservation_fails = 0
	L1D_cache_core[20]: Access = 0, Miss = 0, Miss_rate = -nan, Pending_hits = 0, Reservation_fails = 0
	L1D_cache_core[21]: Access = 0, Miss = 0, Miss_rate = -nan, Pending_hits = 0, Reservation_fails = 0
	L1D_cache_core[22]: Access = 0, Miss = 0, Miss_rate = -nan, Pending_hits = 0, Reservation_fails = 0
	L1D_cache_core[23]: Access = 0, Miss = 0, Miss_rate = -nan, Pending_hits = 0, Reservation_fails = 0
	L1D_cache_core[24]: Access = 0, Miss = 0, Miss_rate = -nan, Pending_hits = 0, Reservation_fails = 0
	L1D_cache_core[25]: Access = 0, Miss = 0, Miss_rate = -nan, Pending_hits = 0, Reservation_fails = 0
	L1D_cache_core[26]: Access = 0, Miss = 0, Miss_rate = -nan, Pending_hits = 0, Reservation_fails = 0
	L1D_cache_core[27]: Access = 0, Miss = 0, Miss_rate = -nan, Pending_hits = 0, Reservation_fails = 0
	L1D_cache_core[28]: Access = 0, Miss = 0, Miss_rate = -nan, Pending_hits = 0, Reservation_fails = 0
	L1D_cache_core[29]: Access = 0, Miss = 0, Miss_rate = -nan, Pending_hits = 0, Reservation_fails = 0
	L1D_cache_core[30]: Access = 0, Miss = 0, Miss_rate = -nan, Pending_hits = 0, Reservation_fails = 0
	L1D_cache_core[31]: Access = 0, Miss = 0, Miss_rate = -nan, Pending_hits = 0, Reservation_fails = 0
	L1D_cache_core[32]: Access = 0, Miss = 0, Miss_rate = -nan, Pending_hits = 0, Reservation_fails = 0
	L1D_cache_core[33]: Access = 0, Miss = 0, Miss_rate = -nan, Pending_hits = 0, Reservation_fails = 0
	L1D_cache_core[34]: Access = 0, Miss = 0, Miss_rate = -nan, Pending_hits = 0, Reservation_fails = 0
	L1D_cache_core[35]: Access = 0, Miss = 0, Miss_rate = -nan, Pending_hits = 0, Reservation_fails = 0
	L1D_cache_core[36]: Access = 0, Miss = 0, Miss_rate = -nan, Pending_hits = 0, Reservation_fails = 0
	L1D_cache_core[37]: Access = 0, Miss = 0, Miss_rate = -nan, Pending_hits = 0, Reservation_fails = 0
	L1D_cache_core[38]: Access = 0, Miss = 0, Miss_rate = -nan, Pending_hits = 0, Reservation_fails = 0
	L1D_cache_core[39]: Access = 0, Miss = 0, Miss_rate = -nan, Pending_hits = 0, Reservation_fails = 0
	L1D_cache_core[40]: Access = 0, Miss = 0, Miss_rate = -nan, Pending_hits = 0, Reservation_fails = 0
	L1D_cache_core[41]: Access = 0, Miss = 0, Miss_rate = -nan, Pending_hits = 0, Reservation_fails = 0
	L1D_cache_core[42]: Access = 0, Miss = 0, Miss_rate = -nan, Pending_hits = 0, Reservation_fails = 0
	L1D_cache_core[43]: Access = 0, Miss = 0, Miss_rate = -nan, Pending_hits = 0, Reservation_fails = 0
	L1D_cache_core[44]: Access = 0, Miss = 0, Miss_rate = -nan, Pending_hits = 0, Reservation_fails = 0
	L1D_cache_core[45]: Access = 0, Miss = 0, Miss_rate = -nan, Pending_hits = 0, Reservation_fails = 0
	L1D_cache_core[46]: Access = 0, Miss = 0, Miss_rate = -nan, Pending_hits = 0, Reservation_fails = 0
	L1D_cache_core[47]: Access = 0, Miss = 0, Miss_rate = -nan, Pending_hits = 0, Reservation_fails = 0
	L1D_cache_core[48]: Access = 0, Miss = 0, Miss_rate = -nan, Pending_hits = 0, Reservation_fails = 0
	L1D_cache_core[49]: Access = 0, Miss = 0, Miss_rate = -nan, Pending_hits = 0, Reservation_fails = 0
	L1D_cache_core[50]: Access = 0, Miss = 0, Miss_rate = -nan, Pending_hits = 0, Reservation_fails = 0
	L1D_cache_core[51]: Access = 0, Miss = 0, Miss_rate = -nan, Pending_hits = 0, Reservation_fails = 0
	L1D_cache_core[52]: Access = 0, Miss = 0, Miss_rate = -nan, Pending_hits = 0, Reservation_fails = 0
	L1D_cache_core[53]: Access = 0, Miss = 0, Miss_rate = -nan, Pending_hits = 0, Reservation_fails = 0
	L1D_cache_core[54]: Access = 0, Miss = 0, Miss_rate = -nan, Pending_hits = 0, Reservation_fails = 0
	L1D_cache_core[55]: Access = 0, Miss = 0, Miss_rate = -nan, Pending_hits = 0, Reservation_fails = 0
	L1D_cache_core[56]: Access = 0, Miss = 0, Miss_rate = -nan, Pending_hits = 0, Reservation_fails = 0
	L1D_cache_core[57]: Access = 0, Miss = 0, Miss_rate = -nan, Pending_hits = 0, Reservation_fails = 0
	L1D_cache_core[58]: Access = 0, Miss = 0, Miss_rate = -nan, Pending_hits = 0, Reservation_fails = 0
	L1D_cache_core[59]: Access = 0, Miss = 0, Miss_rate = -nan, Pending_hits = 0, Reservation_fails = 0
	L1D_cache_core[60]: Access = 0, Miss = 0, Miss_rate = -nan, Pending_hits = 0, Reservation_fails = 0
	L1D_cache_core[61]: Access = 0, Miss = 0, Miss_rate = -nan, Pending_hits = 0, Reservation_fails = 0
	L1D_cache_core[62]: Access = 0, Miss = 0, Miss_rate = -nan, Pending_hits = 0, Reservation_fails = 0
	L1D_cache_core[63]: Access = 0, Miss = 0, Miss_rate = -nan, Pending_hits = 0, Reservation_fails = 0
	L1D_cache_core[64]: Access = 0, Miss = 0, Miss_rate = -nan, Pending_hits = 0, Reservation_fails = 0
	L1D_cache_core[65]: Access = 0, Miss = 0, Miss_rate = -nan, Pending_hits = 0, Reservation_fails = 0
	L1D_cache_core[66]: Access = 0, Miss = 0, Miss_rate = -nan, Pending_hits = 0, Reservation_fails = 0
	L1D_cache_core[67]: Access = 0, Miss = 0, Miss_rate = -nan, Pending_hits = 0, Reservation_fails = 0
	L1D_cache_core[68]: Access = 0, Miss = 0, Miss_rate = -nan, Pending_hits = 0, Reservation_fails = 0
	L1D_cache_core[69]: Access = 0, Miss = 0, Miss_rate = -nan, Pending_hits = 0, Reservation_fails = 0
	L1D_cache_core[70]: Access = 0, Miss = 0, Miss_rate = -nan, Pending_hits = 0, Reservation_fails = 0
	L1D_cache_core[71]: Access = 0, Miss = 0, Miss_rate = -nan, Pending_hits = 0, Reservation_fails = 0
	L1D_cache_core[72]: Access = 0, Miss = 0, Miss_rate = -nan, Pending_hits = 0, Reservation_fails = 0
	L1D_cache_core[73]: Access = 0, Miss = 0, Miss_rate = -nan, Pending_hits = 0, Reservation_fails = 0
	L1D_cache_core[74]: Access = 0, Miss = 0, Miss_rate = -nan, Pending_hits = 0, Reservation_fails = 0
	L1D_cache_core[75]: Access = 0, Miss = 0, Miss_rate = -nan, Pending_hits = 0, Reservation_fails = 0
	L1D_cache_core[76]: Access = 0, Miss = 0, Miss_rate = -nan, Pending_hits = 0, Reservation_fails = 0
	L1D_cache_core[77]: Access = 0, Miss = 0, Miss_rate = -nan, Pending_hits = 0, Reservation_fails = 0
	L1D_cache_core[78]: Access = 0, Miss = 0, Miss_rate = -nan, Pending_hits = 0, Reservation_fails = 0
	L1D_cache_core[79]: Access = 0, Miss = 0, Miss_rate = -nan, Pending_hits = 0, Reservation_fails = 0
	L1D_total_cache_accesses = 442368
	L1D_total_cache_misses = 311276
	L1D_total_cache_miss_rate = 0.7037
	L1D_total_cache_pending_hits = 0
	L1D_total_cache_reservation_fails = 0
	L1D_cache_data_port_util = 0.088
	L1D_cache_fill_port_util = 0.187
L1C_cache:
	L1C_total_cache_accesses = 0
	L1C_total_cache_misses = 0
	L1C_total_cache_pending_hits = 0
	L1C_total_cache_reservation_fails = 0
L1T_cache:
	L1T_total_cache_accesses = 0
	L1T_total_cache_misses = 0
	L1T_total_cache_pending_hits = 0
	L1T_total_cache_reservation_fails = 0

Total_core_cache_stats:
	Total_core_cache_stats_breakdown[GLOBAL_ACC_R][HIT] = 131092
	Total_core_cache_stats_breakdown[GLOBAL_ACC_R][HIT_RESERVED] = 0
	Total_core_cache_stats_breakdown[GLOBAL_ACC_R][MISS] = 126991
	Total_core_cache_stats_breakdown[GLOBAL_ACC_R][RESERVATION_FAIL] = 0
	Total_core_cache_stats_breakdown[GLOBAL_ACC_R][SECTOR_MISS] = 151517
	Total_core_cache_stats_breakdown[LOCAL_ACC_R][HIT] = 0
	Total_core_cache_stats_breakdown[LOCAL_ACC_R][HIT_RESERVED] = 0
	Total_core_cache_stats_breakdown[LOCAL_ACC_R][MISS] = 0
	Total_core_cache_stats_breakdown[LOCAL_ACC_R][RESERVATION_FAIL] = 0
	Total_core_cache_stats_breakdown[LOCAL_ACC_R][SECTOR_MISS] = 0
	Total_core_cache_stats_breakdown[CONST_ACC_R][HIT] = 0
	Total_core_cache_stats_breakdown[CONST_ACC_R][HIT_RESERVED] = 0
	Total_core_cache_stats_breakdown[CONST_ACC_R][MISS] = 0
	Total_core_cache_stats_breakdown[CONST_ACC_R][RESERVATION_FAIL] = 0
	Total_core_cache_stats_breakdown[CONST_ACC_R][SECTOR_MISS] = 0
	Total_core_cache_stats_breakdown[TEXTURE_ACC_R][HIT] = 0
	Total_core_cache_stats_breakdown[TEXTURE_ACC_R][HIT_RESERVED] = 0
	Total_core_cache_stats_breakdown[TEXTURE_ACC_R][MISS] = 0
	Total_core_cache_stats_breakdown[TEXTURE_ACC_R][RESERVATION_FAIL] = 0
	Total_core_cache_stats_breakdown[TEXTURE_ACC_R][SECTOR_MISS] = 0
	Total_core_cache_stats_breakdown[GLOBAL_ACC_W][HIT] = 0
	Total_core_cache_stats_breakdown[GLOBAL_ACC_W][HIT_RESERVED] = 0
	Total_core_cache_stats_breakdown[GLOBAL_ACC_W][MISS] = 32768
	Total_core_cache_stats_breakdown[GLOBAL_ACC_W][RESERVATION_FAIL] = 0
	Total_core_cache_stats_breakdown[GLOBAL_ACC_W][SECTOR_MISS] = 0
	Total_core_cache_stats_breakdown[LOCAL_ACC_W][HIT] = 0
	Total_core_cache_stats_breakdown[LOCAL_ACC_W][HIT_RESERVED] = 0
	Total_core_cache_stats_breakdown[LOCAL_ACC_W][MISS] = 0
	Total_core_cache_stats_breakdown[LOCAL_ACC_W][RESERVATION_FAIL] = 0
	Total_core_cache_stats_breakdown[LOCAL_ACC_W][SECTOR_MISS] = 0
	Total_core_cache_stats_breakdown[L1_WRBK_ACC][HIT] = 0
	Total_core_cache_stats_breakdown[L1_WRBK_ACC][HIT_RESERVED] = 0
	Total_core_cache_stats_breakdown[L1_WRBK_ACC][MISS] = 0
	Total_core_cache_stats_breakdown[L1_WRBK_ACC][RESERVATION_FAIL] = 0
	Total_core_cache_stats_breakdown[L1_WRBK_ACC][SECTOR_MISS] = 0
	Total_core_cache_stats_breakdown[L2_WRBK_ACC][HIT] = 0
	Total_core_cache_stats_breakdown[L2_WRBK_ACC][HIT_RESERVED] = 0
	Total_core_cache_stats_breakdown[L2_WRBK_ACC][MISS] = 0
	Total_core_cache_stats_breakdown[L2_WRBK_ACC][RESERVATION_FAIL] = 0
	Total_core_cache_stats_breakdown[L2_WRBK_ACC][SECTOR_MISS] = 0
	Total_core_cache_stats_breakdown[INST_ACC_R][HIT] = 0
	Total_core_cache_stats_breakdown[INST_ACC_R][HIT_RESERVED] = 0
	Total_core_cache_stats_breakdown[INST_ACC_R][MISS] = 0
	Total_core_cache_stats_breakdown[INST_ACC_R][RESERVATION_FAIL] = 0
	Total_core_cache_stats_breakdown[INST_ACC_R][SECTOR_MISS] = 0
	Total_core_cache_stats_breakdown[L1_WR_ALLOC_R][HIT] = 0
	Total_core_cache_stats_breakdown[L1_WR_ALLOC_R][HIT_RESERVED] = 0
	Total_core_cache_stats_breakdown[L1_WR_ALLOC_R][MISS] = 0
	Total_core_cache_stats_breakdown[L1_WR_ALLOC_R][RESERVATION_FAIL] = 0
	Total_core_cache_stats_breakdown[L1_WR_ALLOC_R][SECTOR_MISS] = 0
	Total_core_cache_stats_breakdown[L2_WR_ALLOC_R][HIT] = 0
	Total_core_cache_stats_breakdown[L2_WR_ALLOC_R][HIT_RESERVED] = 0
	Total_core_cache_stats_breakdown[L2_WR_ALLOC_R][MISS] = 0
	Total_core_cache_stats_breakdown[L2_WR_ALLOC_R][RESERVATION_FAIL] = 0
	Total_core_cache_stats_breakdown[L2_WR_ALLOC_R][SECTOR_MISS] = 0
	Total_core_cache_stats_breakdown[GLOBAL_ACC_R][TOTAL_ACCESS] = 409600
	Total_core_cache_stats_breakdown[GLOBAL_ACC_W][TOTAL_ACCESS] = 32768

Total_core_cache_fail_stats:
Shader 0 warp_id issue ditsribution:
warp_id:
0, 1, 2, 3, 4, 5, 6, 7, 8, 9, 10, 11, 12, 13, 14, 15, 16, 17, 18, 19, 20, 21, 22, 23, 24, 25, 26, 27, 28, 29, 30, 31, 
distro:
3023, 3023, 3023, 3023, 3023, 3023, 3023, 3023, 3023, 3023, 3023, 3023, 3023, 3023, 3023, 3023, 3023, 3023, 3023, 3023, 3023, 3023, 3023, 3023, 3023, 3023, 3023, 3023, 3023, 3023, 3023, 3023, 
gpgpu_n_tot_thrd_icount = 24764416
gpgpu_n_tot_w_icount = 773888
gpgpu_n_stall_shd_mem = 245760
gpgpu_n_mem_read_local = 0
gpgpu_n_mem_write_local = 0
gpgpu_n_mem_read_global = 278508
gpgpu_n_mem_write_global = 32768
gpgpu_n_mem_texture = 0
gpgpu_n_mem_const = 0
gpgpu_n_load_insn  = 3407872
gpgpu_n_store_insn = 131072
gpgpu_n_shmem_insn = 0
gpgpu_n_sstarr_insn = 0
gpgpu_n_tex_insn = 0
gpgpu_n_const_mem_insn = 0
gpgpu_n_param_mem_insn = 40960
gpgpu_n_shmem_bkconflict = 0
gpgpu_n_cache_bkconflict = 0
gpgpu_n_intrawarp_mshr_merge = 0
gpgpu_n_cmem_portconflict = 0
gpgpu_stall_shd_mem[c_mem][resource_stall] = 0
gpgpu_stall_shd_mem[s_mem][bk_conf] = 0
gpgpu_stall_shd_mem[gl_mem][resource_stall] = 245760
gpgpu_stall_shd_mem[gl_mem][coal_stall] = 0
gpgpu_stall_shd_mem[gl_mem][data_port_stall] = 0
gpu_reg_bank_conflict_stalls = 0
Warp Occupancy Distribution:
Stall:6861	W0_Idle:38663	W0_Scoreboard:5153040	W1:0	W2:0	W3:0	W4:229376	W5:0	W6:0	W7:0	W8:0	W9:0	W10:0	W11:0	W12:0	W13:0	W14:0	W15:0	W16:0	W17:0	W18:0	W19:0	W20:0	W21:0	W22:0	W23:0	W24:0	W25:0	W26:0	W27:0	W28:0	W29:0	W30:0	W31:0	W32:544512
single_issue_nums: WS0:193472	WS1:193472	WS2:193472	WS3:193472	
dual_issue_nums: WS0:0	WS1:0	WS2:0	WS3:0	
traffic_breakdown_coretomem[GLOBAL_ACC_R] = 2228064 {8:278508,}
traffic_breakdown_coretomem[GLOBAL_ACC_W] = 1310720 {40:32768,}
traffic_breakdown_memtocore[GLOBAL_ACC_R] = 11140320 {40:278508,}
traffic_breakdown_memtocore[GLOBAL_ACC_W] = 262144 {8:32768,}
maxmflatency = 1044 
max_icnt2mem_latency = 26 
maxmrqlatency = 370 
max_icnt2sh_latency = 14 
averagemflatency = 442 
avg_icnt2mem_latency = 23 
avg_mrq_latency = 7 
avg_icnt2sh_latency = 2 
mrq_lat_table:207522 	25967 	2462 	4911 	11852 	13413 	6341 	1776 	51 	0 	0 	0 	0 	0 	0 	0 	0 	0 	0 	0 	0 	0 	0 	0 	0 	0 	0 	0 	0 	0 	0 	0 	
dq_lat_table:0 	0 	0 	0 	0 	0 	0 	0 	0 	0 	0 	0 	0 	0 	0 	0 	0 	0 	0 	0 	0 	0 	0 	0 	0 	0 	0 	0 	0 	0 	0 	0 	
mf_lat_table:0 	0 	0 	0 	0 	0 	0 	39423 	232045 	39801 	7 	0 	0 	0 	0 	0 	0 	0 	0 	0 	0 	0 	0 	0 	0 	0 	0 	0 	0 	0 	0 	0 	
icnt2mem_lat_table:0 	0 	0 	0 	311276 	0 	0 	0 	0 	0 	0 	0 	0 	0 	0 	0 	0 	0 	0 	0 	0 	0 	0 	0 	
icnt2sh_lat_table:0 	294204 	16961 	111 	0 	0 	0 	0 	0 	0 	0 	0 	0 	0 	0 	0 	0 	0 	0 	0 	0 	0 	0 	0 	
mf_lat_pw_table:0 	0 	0 	0 	0 	0 	0 	1 	365 	8 	0 	0 	0 	0 	0 	0 	0 	0 	0 	0 	0 	0 	0 	0 	0 	0 	0 	0 	0 	0 	0 	0 	
maximum concurrent accesses to same row:
dram[0]:         4         4         8         7         6         6         4         4         4         4         4         4         4         4         4         4 
dram[1]:         4         4         5         4         4         4         9         5         4         4         4         3         4         4         4         4 
dram[2]:         4         4         6         7        11         7         6         6         4         4         3         4         4         4         4         4 
dram[3]:         4         4         5         4         5         4         5         7         4         4         4         4         4         4         4         4 
dram[4]:         6         4         4         5         6         4         4         4         5         4         4         4         4         4         4         4 
dram[5]:         4         4         4         4         6         6         7         5         4         4         4         3         4         4         4         4 
dram[6]:         4         4         7         6         4         8         4         5         4         4         4         3         4         4         4         4 
dram[7]:         3         4         4         4         3         5         4         5         4         5         4         4         4         4         4         4 
dram[8]:         3         4         5         4         6         7         5         4         4         4         4         4         4         4         4         5 
dram[9]:         4         4        10         6         5         5         5         8         4         4         4         4         4         4         4         4 
dram[10]:         4         4         6         6         7         5         4         6         6         4         4         3         4         4         3         4 
dram[11]:         3         4         4         4         4         5         4         5         4         4         4         4         4         4         4         4 
dram[12]:         4         4         4         4         6         4         5         7         3         4         4         4         4         4         3         4 
dram[13]:         4         4         5         7         6         4         4         5         4         4         4         4         4         3         4         4 
dram[14]:         4         4         6         5         8         4         5         7         4         4         4         4         4         4         4         4 
dram[15]:         4         4         4         5         8         8         7         4         4         4         4         4         4         4         4         4 
dram[16]:         4         4         5         6         5         6         6         4         4         4         4         4         4         4         4         4 
dram[17]:         4         4         8         8         6         4         5         4         3         4         4         4         4         4         4         3 
dram[18]:         4         4         5         4         7         4         8         5         3         4         4         3         4         4         4         4 
dram[19]:         4         8         5         5         4         4         5         4         3         4         4         4         4         3         4         4 
dram[20]:         4         4         6         8         4         4         6         5         4         4         4         4         4         4         4         3 
dram[21]:         4         4         8         5         7         4         6         3         4         4         4         4         4         4         4         4 
dram[22]:         3         4         4         7         6         6         5         7         4         4         4         4         4         4         4         3 
dram[23]:         4         4         7         7         5         4         6         7         4         4         4         4         4         4         4         4 
dram[24]:         4         4         5         4         5         6         4         5         4         4         4         4         4         4         4         4 
dram[25]:         4         4         4         4         5         7         4         8         4         4         4         4         4         4         4         4 
dram[26]:         4         4         7         4         6         5         6         4         4         3         4         3         4         4         4         4 
dram[27]:         4         4         4         4         6         6         4         6         4         4         4         4         3         4         4         4 
dram[28]:         4         4         5         5         6         4         5         6         4         4         4         4         4         4         4         4 
dram[29]:         4         3         8         6         8         5         5         4         4         4         4         4         4         4         4         4 
dram[30]:         4         4         7         5         4         6         4         4         4         4         4         4         4         4         4         4 
dram[31]:         4         4         7         7         8         4         4         4         4         4         4         4         4         4         4         4 
maximum service time to same row:
dram[0]:      5835      5977      5927      5919      7759      5868      5840      7152      5859      7008      8146      5907      5899      5862      8059      5930 
dram[1]:      5844      8321      5949      5936      7106      5995      7627      5870      5948      5847      8393      5931      5868      6680      5900      5866 
dram[2]:      6266      7816      5855      5924      7463      7074      5923      5907      5851      6951      5836      5899      5969      5856      8329      7097 
dram[3]:      5910      7936      8123      5985      7063      5923      5874      7084      5876      7958      5988      5847      5863      5907      5886      5864 
dram[4]:      5852      6524      8206      5867      5839      6987      7101      6859      7452      5835      6887      5862      5908      5868      5886      5851 
dram[5]:      5879      5935      5942      5835      5880      6588      5891      5839      5939      5855      5878      5924      5862      5836      7115      9083 
dram[6]:      5968      6194      5878      5876      5844      7124      5911      5879      5848      5960      5931      5957      6584      5903      5880      5847 
dram[7]:      5858      6700      5843      6983      5851      5942      5835      7563      5985      5875      5898      5883      6913      5976      5836      5872 
dram[8]:      5863      5875      5855      5882      5864      8095      5879      5923      5903      5920      5980      5880      5919      5836      5940      6170 
dram[9]:      5955      5839      7031      5847      5907      5840      5883      6298      6241      7584      5842      5884      5942      5988      5851      5855 
dram[10]:      5967      5910      5875      5879      6282      5896      8031      6915      5847      5878      6280      5895      7076      6968      6992      5856 
dram[11]:      5856      5880      5868      5876      7084      7051      8174      5867      5835      5855      5887      5859      5847      6772      5836      5919 
dram[12]:      5898      5878      8060      8091      5847      5870      5972      5867      5923      7589      6939      5843      5855      5883      5976      5879 
dram[13]:      5908      5839      8372      5891      5919      5888      5843      6594      7093      5887      5842      5968      9772      6720      6321      5965 
dram[14]:      7041      5923      5981      7144      5843      5840      6058      5926      7865      7112      5839      5882      5872      5888      5891      8853 
dram[15]:      5874      6694      8416      5939      5892      5926      5844      5886      8076      6257      6916      5882      5839      5855      5883      5902 
dram[16]:      5976      5867      5866      5977      9168      5903      5895      7843      5939      7105      5863      6125      5908      5973      7089      7062 
dram[17]:      6968      6951      5842      5920      6843      5908      5839      5835      5894      5903      6987      5936      5855      5961      5932      5899 
dram[18]:      5856      6851      5936      8260      5895      5859      8165      8657      5876      5918      5874      7221      5875      5956      8296      5883 
dram[19]:      5928      5840      5855      8039      5839      5844      5878      5930      7071      5928      5836      5899      5842      5886      9372      5868 
dram[20]:      7068      6041      5932      6868      7028      5883      5895      5939      5980      5918      5922      5892      6976      5961      6045      6057 
dram[21]:      5863      7047      5888      5850      5855      5927      5944      8208      5891      5856      7107      5884      5890      5848      5847      5839 
dram[22]:      8216      6161      5840      5856      5844      6040      5836      5858      5931      5839      9123      5835      5855      5988      5852      5842 
dram[23]:      8340      6407      5847      5866      5935      5992      5852      7904      5977      5882      6841      6026      5896      5880      5879      5856 
dram[24]:      5856      6843      6419      5843      5852      5866      5851      5864      5859      5895      5903      6633      5887      5879      8460      5902 
dram[25]:      5847      5835      5898      5952      5843      5944      5899      7039      5851      5895      5888      5960      5840      5961      6592      5920 
dram[26]:      5968      5910      5891      9867      8048      6868      8135      5839      5898      5875      5920      5892      7080      6871      5847      5962 
dram[27]:      7112      6792      6186      5972      6463      5844      5851      5866      5919      5923      6126      5924      5843     11272      5835      5862 
dram[28]:      7173      5840      5984      5904      6994      5908      5931      5911      5844      7074      5843      5883      5863      5835      5899      5927 
dram[29]:      5855      5875      5930      5955      5980      6057      6365      5964      6765      5876      5895      5852      5952      5884      8245      5835 
dram[30]:      5988      6511      5876      7404      7333      5919      5903      5864      5887      5910      5875      5880      5843      6832      7108      6724 
dram[31]:      5843      5932      5903      5835      5875      5891      5867      7072      5855      5906      8321      5863      5920      5928      5862      5839 
average row accesses per activate:
dram[0]:  1.118998  1.171569  1.195604  1.177914  1.201835  1.163498  1.159363  1.148438  1.123173  1.131034  1.111111  1.143868  1.123314  1.117271  1.131455  1.131687 
dram[1]:  1.133603  1.132159  1.164251  1.166667  1.142322  1.125664  1.165939  1.188406  1.124210  1.158621  1.152778  1.106918  1.118577  1.171429  1.108168  1.139738 
dram[2]:  1.172577  1.171717  1.141649  1.175732  1.137255  1.158301  1.164461  1.146617  1.138322  1.133489  1.106122  1.140389  1.149184  1.144578  1.144708  1.112088 
dram[3]:  1.170616  1.161290  1.138144  1.154684  1.142857  1.194313  1.136187  1.156000  1.136752  1.148064  1.122642  1.116832  1.108647  1.190476  1.185185  1.136465 
dram[4]:  1.166287  1.154013  1.144681  1.183223  1.166316  1.140039  1.143925  1.147679  1.162471  1.131183  1.134576  1.113636  1.147465  1.147844  1.115152  1.118280 
dram[5]:  1.148472  1.153488  1.153846  1.162281  1.200000  1.133945  1.163636  1.209302  1.142857  1.124236  1.126556  1.094812  1.141531  1.105691  1.135593  1.093168 
dram[6]:  1.186046  1.125000  1.185012  1.157480  1.127586  1.175926  1.139665  1.152893  1.172932  1.145299  1.100806  1.109278  1.189189  1.127310  1.167464  1.128514 
dram[7]:  1.132251  1.162353  1.141221  1.140152  1.131059  1.128391  1.157258  1.180328  1.173594  1.197008  1.123732  1.142232  1.175853  1.108411  1.189573  1.124153 
dram[8]:  1.149144  1.144050  1.163218  1.147860  1.144444  1.175399  1.122677  1.198198  1.152542  1.127572  1.124744  1.154930  1.150463  1.162996  1.129670  1.191067 
dram[9]:  1.166287  1.154989  1.213198  1.125899  1.137746  1.141700  1.184510  1.166297  1.146853  1.119658  1.137500  1.111111  1.162621  1.140969  1.151386  1.108614 
dram[10]:  1.105839  1.151376  1.160377  1.140115  1.212254  1.146881  1.141199  1.166333  1.127660  1.181373  1.150358  1.129167  1.174564  1.151869  1.106195  1.149533 
dram[11]:  1.109344  1.127202  1.204188  1.163708  1.143984  1.132000  1.156379  1.157676  1.133028  1.168591  1.146119  1.094069  1.197115  1.121795  1.127907  1.182898 
dram[12]:  1.152466  1.163728  1.171171  1.152750  1.162500  1.118959  1.166333  1.147348  1.128713  1.118012  1.114688  1.194805  1.155718  1.115207  1.169620  1.141531 
dram[13]:  1.126437  1.125000  1.170507  1.186207  1.149020  1.138462  1.158513  1.149105  1.103004  1.150235  1.126761  1.155844  1.217262  1.117904  1.194595  1.183099 
dram[14]:  1.143498  1.103586  1.198178  1.202643  1.180915  1.163636  1.140870  1.156673  1.128954  1.152174  1.142857  1.116183  1.126459  1.120763  1.118474  1.129412 
dram[15]:  1.148847  1.139480  1.117391  1.162791  1.132075  1.172962  1.125448  1.120841  1.146172  1.169014  1.091589  1.181373  1.106691  1.097744  1.151111  1.125461 
dram[16]:  1.162037  1.173267  1.174603  1.138277  1.121495  1.139875  1.209302  1.164786  1.095618  1.116183  1.119342  1.192893  1.174393  1.171990  1.147186  1.158442 
dram[17]:  1.118791  1.123042  1.156863  1.166324  1.189873  1.190266  1.131274  1.139442  1.111562  1.109780  1.120316  1.167059  1.128964  1.119522  1.170940  1.140049 
dram[18]:  1.136465  1.139130  1.179039  1.176166  1.134752  1.151394  1.208696  1.138520  1.099065  1.158730  1.142241  1.125773  1.132911  1.153846  1.132867  1.157895 
dram[19]:  1.200000  1.130785  1.133333  1.172557  1.100346  1.143443  1.158103  1.146881  1.109312  1.097804  1.136456  1.109804  1.125000  1.086304  1.138686  1.151648 
dram[20]:  1.120968  1.211640  1.147601  1.199085  1.135903  1.144554  1.149606  1.162887  1.124464  1.096154  1.144105  1.114851  1.126609  1.174528  1.139073  1.100196 
dram[21]:  1.162281  1.195822  1.135593  1.163180  1.160338  1.150376  1.139147  1.125725  1.100196  1.093750  1.095436  1.135246  1.169576  1.136555  1.129555  1.173210 
dram[22]:  1.136986  1.114471  1.167728  1.222222  1.136364  1.159763  1.133710  1.162325  1.165829  1.155779  1.153846  1.145299  1.155136  1.114583  1.146119  1.177034 
dram[23]:  1.142180  1.129032  1.204211  1.149123  1.166355  1.161943  1.158700  1.164444  1.131640  1.142857  1.165375  1.105477  1.115914  1.155502  1.174263  1.198020 
dram[24]:  1.191601  1.144860  1.153374  1.154734  1.136283  1.148776  1.183585  1.141053  1.213198  1.133333  1.133028  1.136038  1.149028  1.164319  1.158690  1.096774 
dram[25]:  1.158974  1.128099  1.158954  1.143529  1.139147  1.187234  1.187935  1.206140  1.146392  1.129555  1.162228  1.125828  1.101504  1.192612  1.152074  1.108481 
dram[26]:  1.128668  1.173913  1.156118  1.128755  1.144016  1.203501  1.201856  1.191874  1.104651  1.119192  1.169811  1.167070  1.151961  1.154856  1.206982  1.112381 
dram[27]:  1.176744  1.147465  1.137255  1.190266  1.172131  1.161290  1.179138  1.222772  1.118367  1.164882  1.166667  1.139485  1.115970  1.143541  1.141553  1.146067 
dram[28]:  1.127789  1.147392  1.212598  1.202673  1.138775  1.149194  1.214912  1.144531  1.129252  1.159705  1.120459  1.150215  1.131291  1.094000  1.112903  1.140230 
dram[29]:  1.137931  1.122411  1.180556  1.125490  1.152091  1.158537  1.129921  1.166348  1.130631  1.160093  1.116071  1.115304  1.123667  1.133630  1.109170  1.120968 
dram[30]:  1.169014  1.158442  1.139623  1.166333  1.144404  1.144487  1.134168  1.132150  1.181818  1.115619  1.123506  1.133475  1.151282  1.119658  1.163895  1.191601 
dram[31]:  1.177885  1.202381  1.183674  1.136029  1.175781  1.146718  1.132710  1.141079  1.187215  1.115010  1.106640  1.150985  1.133183  1.146186  1.116883  1.235632 
average row locality = 274295/239262 = 1.146421
number of total memory accesses made:
dram[0]:         0         0         0         0         0         0         0         0         0         0         0         0         0         0         0         0 
dram[1]:         0         0         0         0         0         0         0         0         0         0         0         0         0         0         0         0 
dram[2]:         0         0         0         0         0         0         0         0         0         0         0         0         0         0         0         0 
dram[3]:         0         0         0         0         0         0         0         0         0         0         0         0         0         0         0         0 
dram[4]:         0         0         0         0         0         0         0         0         0         0         0         0         0         0         0         0 
dram[5]:         0         0         0         0         0         0         0         0         0         0         0         0         0         0         0         0 
dram[6]:         0         0         0         0         0         0         0         0         0         0         0         0         0         0         0         0 
dram[7]:         0         0         0         0         0         0         0         0         0         0         0         0         0         0         0         0 
dram[8]:         0         0         0         0         0         0         0         0         0         0         0         0         0         0         0         0 
dram[9]:         0         0         0         0         0         0         0         0         0         0         0         0         0         0         0         0 
dram[10]:         0         0         0         0         0         0         0         0         0         0         0         0         0         0         0         0 
dram[11]:         0         0         0         0         0         0         0         0         0         0         0         0         0         0         0         0 
dram[12]:         0         0         0         0         0         0         0         0         0         0         0         0         0         0         0         0 
dram[13]:         0         0         0         0         0         0         0         0         0         0         0         0         0         0         0         0 
dram[14]:         0         0         0         0         0         0         0         0         0         0         0         0         0         0         0         0 
dram[15]:         0         0         0         0         0         0         0         0         0         0         0         0         0         0         0         0 
dram[16]:         0         0         0         0         0         0         0         0         0         0         0         0         0         0         0         0 
dram[17]:         0         0         0         0         0         0         0         0         0         0         0         0         0         0         0         0 
dram[18]:         0         0         0         0         0         0         0         0         0         0         0         0         0         0         0         0 
dram[19]:         0         0         0         0         0         0         0         0         0         0         0         0         0         0         0         0 
dram[20]:         0         0         0         0         0         0         0         0         0         0         0         0         0         0         0         0 
dram[21]:         0         0         0         0         0         0         0         0         0         0         0         0         0         0         0         0 
dram[22]:         0         0         0         0         0         0         0         0         0         0         0         0         0         0         0         0 
dram[23]:         0         0         0         0         0         0         0         0         0         0         0         0         0         0         0         0 
dram[24]:         0         0         0         0         0         0         0         0         0         0         0         0         0         0         0         0 
dram[25]:         0         0         0         0         0         0         0         0         0         0         0         0         0         0         0         0 
dram[26]:         0         0         0         0         0         0         0         0         0         0         0         0         0         0         0         0 
dram[27]:         0         0         0         0         0         0         0         0         0         0         0         0         0         0         0         0 
dram[28]:         0         0         0         0         0         0         0         0         0         0         0         0         0         0         0         0 
dram[29]:         0         0         0         0         0         0         0         0         0         0         0         0         0         0         0         0 
dram[30]:         0         0         0         0         0         0         0         0         0         0         0         0         0         0         0         0 
dram[31]:         0         0         0         0         0         0         0         0         0         0         0         0         0         0         0         0 
total accesses: 0
min_bank_accesses = 0!
min_chip_accesses = 0!
number of total read accesses:
dram[0]:       536       478       544       576       524       612       582       588       522       476       544       470       576       518       482       550 
dram[1]:       560       514       482       532       610       636       534       574       518       488       482       512       558       486       502       522 
dram[2]:       496       464       540       562       580       600       616       610       486       468       526       512       486       472       530       506 
dram[3]:       494       468       552       530       632       504       584       578       516       488       460       548       492       470       512       508 
dram[4]:       512       532       538       536       554       578       612       544       492       510       532       572       490       552       552       520 
dram[5]:       526       496       600       530       564       618       576       468       488       536       528       596       486       538       536       528 
dram[6]:       510       468       506       588       654       508       612       558       452       520       530       522       434       542       488       562 
dram[7]:       488       494       598       602       630       624       574       504       464       464       538       506       444       586       502       498 
dram[8]:       470       548       506       590       618       516       604       532       528       532       534       476       488       522       514       480 
dram[9]:       512       544       478       626       636       564       520       526       476       508       532       514       470       510       540       592 
dram[10]:       606       502       492       594       554       570       590       582       514       466       466       526       464       486       500       492 
dram[11]:       558       576       460       590       580       566       562       558       478       490       486       520       492       520       582       498 
dram[12]:       514       462       520       566       558       602       582       584       554       524       538       444       468       482       462       492 
dram[13]:       490       540       508       516       586       592       592       578       498       474       544       518       402       508       442       504 
dram[14]:       510       554       526       546       594       576       656       598       448       514       520       522       572       526       556       576 
dram[15]:       548       482       514       550       600       590       628       640       478       482       568       466       604       580       518       610 
dram[16]:       502       474       518       568       600       546       520       516       534       522       528       454       524       470       530       446 
dram[17]:       518       502       472       568       564       538       586       572       532       540       552       480       528       554       548       464 
dram[18]:       508       524       540       454       640       578       556       600       572       568       514       530       530       490       486       506 
dram[19]:       462       562       578       564       636       558       586       570       532       534       542       550       524       572       468       524 
dram[20]:       556       458       622       524       560       578       584       564       508       554       508       548       516       492       516       560 
dram[21]:       530       458       536       556       550       612       614       582       544       544       512       538       460       534       558       508 
dram[22]:       498       516       550       484       650       588       602       580       448       444       434       520       544       528       502       492 
dram[23]:       482       490       572       524       624       574       606       524       474       496       436       530       560       478       438       484 
dram[24]:       454       490       564       500       642       610       548       542       462       562       478       460       526       490       460       578 
dram[25]:       452       546       576       486       614       558       512       550       540       542       464       494       582       446       500       562 
dram[26]:       500       486       548       526       564       550       518       528       554       538       480       466       462       434       484       584 
dram[27]:       506       498       580       538       572       576       520       494       532       528       432       516       582       472       500       510 
dram[28]:       556       506       462       540       558       570       554       586       482       456       570       520       512       540       552       496 
dram[29]:       528       596       510       574       606       570       574       610       486       484       484       516       520       504       508       556 
dram[30]:       498       446       604       582       634       602       634       574       452       534       548       520       444       518       490       454 
dram[31]:       490       404       522       618       602       594       606       550       504       556       534       510       494       536       516       430 
total dram reads = 271848
bank skew: 656/402 = 1.63
chip skew: 8858/8222 = 1.08
number of total write accesses:
dram[0]:         0         0         0         0         0         0         0         0        64        64        64        60        28        24         0         0 
dram[1]:         0         0         0         0         0         0         0         0        64        64        64        64        32        24         0         0 
dram[2]:         0         0         0         0         0         0         0         0        64        64        64        64        28        12         0         0 
dram[3]:         0         0         0         0         0         0         0         0        64        64        64        64        32        20         0         0 
dram[4]:         0         0         0         0         0         0         0         0        64        64        64        64        32        28         0         0 
dram[5]:         0         0         0         0         0         0         0         0        64        64        60        64        24        24         0         0 
dram[6]:         0         0         0         0         0         0         0         0        64        64        64        64        24        28         0         0 
dram[7]:         0         0         0         0         0         0         0         0        64        64        64        64        16        28         0         0 
dram[8]:         0         0         0         0         0         0         0         0        64        64        64        64        36        24         0         0 
dram[9]:         0         0         0         0         0         0         0         0        64        64        56        64        36        32         0         0 
dram[10]:         0         0         0         0         0         0         0         0        64        64        64        64        28        28         0         0 
dram[11]:         0         0         0         0         0         0         0         0        64        64        64        60        24        20         0         0 
dram[12]:         0         0         0         0         0         0         0         0        64        64        64        64        28         8         0         0 
dram[13]:         0         0         0         0         0         0         0         0        64        64        64        64        28        16         0         0 
dram[14]:         0         0         0         0         0         0         0         0        64        64        64        64        28        12         4         0 
dram[15]:         0         0         0         0         0         0         0         0        64        64        64        64        32        16         0         0 
dram[16]:         0         0         0         0         0         0         0         0        64        64        64        64        32        28         0         0 
dram[17]:         0         0         0         0         0         0         0         0        64        64        64        64        24        32         0         0 
dram[18]:         0         0         0         0         0         0         0         0        64        64        64        64        28        20         0         0 
dram[19]:         0         0         0         0         0         0         0         0        64        64        64        64        28        28         0         0 
dram[20]:         0         0         0         0         0         0         0         0        64        64        64        60        36        24         0         0 
dram[21]:         0         0         0         0         0         0         0         0        64        64        64        64        36        28         0         0 
dram[22]:         0         0         0         0         0         0         0         0        64        64        64        64        28        28         0         0 
dram[23]:         0         0         0         0         0         0         0         0        64        64        60        60        32        20         0         0 
dram[24]:         0         0         0         0         0         0         0         0        64        64        64        64        24        24         0         0 
dram[25]:         0         0         0         0         0         0         0         0        64        64        64        64        16        24         0         0 
dram[26]:         0         0         0         0         0         0         0         0        64        64        64        64        32        24         0         0 
dram[27]:         0         0         0         0         0         0         0         0        64        64        64        60        20        24         0         0 
dram[28]:         0         0         0         0         0         0         0         0        64        64        64        64        20        28         0         0 
dram[29]:         0         0         0         0         0         0         0         0        64        64        64        64        28        20         0         0 
dram[30]:         0         0         0         0         0         0         0         0        64        64        64        60        20        24         0         0 
dram[31]:         0         0         0         0         0         0         0         0        64        64        64        64        32        20         0         0 
total dram writes = 9788
min_bank_accesses = 0!
chip skew: 320/292 = 1.10
average mf latency per bank:
dram[0]:        507       512       484       487       480       480       472       488       477       465       479       469       501       504       534       514
[...]
Issued_on_Two_Bus_Simul_Util = 0.006734 
issued_two_Eff = 0.044970 
queue_avg = 0.233422 


dram_util_bins: 0 0 0 0 0 0 0 0 0 0
dram_eff_bins: 0 0 0 0 0 0 0 0 0 0
mrqq: max=17 avg=0.233422
Memory Partition 28: 
Cache L2_bank_056:
MSHR contents

Cache L2_bank_057:
MSHR contents

In Dram Latency Queue (total = 0): 
DRAM[28]: 16 bks, busW=16 BL=2 CL=12, tRRD=3 tCCD=1, tRCD=12 tRAS=28 tRP=12 tRC=40
n_cmd=148362 n_nop=125826 n_act=7443 n_pre=7427 n_ref_event=0 n_req=8536 n_rd=8460 n_rd_L2_A=0 n_write=0 n_wr_bk=304 bw_util=0.05907
n_activity=114261 dram_eff=0.0767
bk0: 556a 134523i bk1: 506a 136241i bk2: 462a 137875i bk3: 540a 135856i bk4: 558a 134751i bk5: 570a 134208i bk6: 554a 135758i bk7: 586a 133744i bk8: 482a 135507i bk9: 456a 136740i bk10: 570a 133159i bk11: 520a 135059i bk12: 512a 135500i bk13: 540a 134312i bk14: 552a 134458i bk15: 496a 136154i 

------------------------------------------------------------------------

Row_Buffer_Locality = 0.128046
Row_Buffer_Locality_read = 0.128132
Row_Buffer_Locality_write = 0.118421
Bank_Level_Parallism = 2.327977
Bank_Level_Parallism_Col = 1.539554
Bank_Level_Parallism_Ready = 1.036399
write_to_read_ratio_blp_rw_average = 0.016238
GrpLevelPara = 1.382657 

BW Util details:
bwutil = 0.059072 
total_CMD = 148362 
util_bw = 8764 
Wasted_Col = 54957 
Wasted_Row = 30130 
Idle = 54511 

BW Util Bottlenecks: 
RCDc_limit = 79800 
RCDWRc_limit = 548 
WTRc_limit = 2508 
RTWc_limit = 1410 
CCDLc_limit = 2219 
rwq = 0 
CCDLc_limit_alone = 1949 
WTRc_limit_alone = 2295 
RTWc_limit_alone = 1353 

Commands details: 
total_CMD = 148362 
n_nop = 125826 
Read = 8460 
Write = 0 
L2_Alloc = 0 
L2_WB = 304 
n_act = 7443 
n_pre = 7427 
n_ref = 0 
n_req = 8536 
total_req = 8764 

Dual Bus Interface Util: 
issued_total_row = 14870 
issued_total_col = 8764 
Row_Bus_Util =  0.100228 
CoL_Bus_Util = 0.059072 
Either_Row_CoL_Bus_Util = 0.151899 
Issued_on_Two_Bus_Simul_Util = 0.007401 
issued_two_Eff = 0.048722 
queue_avg = 0.254816 


dram_util_bins: 0 0 0 0 0 0 0 0 0 0
dram_eff_bins: 0 0 0 0 0 0 0 0 0 0
mrqq: max=14 avg=0.254816
Memory Partition 29: 
Cache L2_bank_058:
MSHR contents

Cache L2_bank_059:
MSHR contents

In Dram Latency Queue (total = 0): 
DRAM[29]: 16 bks, busW=16 BL=2 CL=12, tRRD=3 tCCD=1, tRCD=12 tRAS=28 tRP=12 tRC=40
n_cmd=148362 n_nop=125323 n_act=7658 n_pre=7642 n_ref_event=0 n_req=8702 n_rd=8626 n_rd_L2_A=0 n_write=0 n_wr_bk=304 bw_util=0.06019
n_activity=116563 dram_eff=0.07661
bk0: 528a 135730i bk1: 596a 132982i bk2: 510a 136255i bk3: 574a 133913i bk4: 606a 133674i bk5: 570a 134059i bk6: 574a 134284i bk7: 610a 133478i bk8: 486a 135734i bk9: 484a 135615i bk10: 484a 135240i bk11: 516a 134584i bk12: 520a 135087i bk13: 504a 135473i bk14: 508a 135489i bk15: 556a 133967i 

------------------------------------------------------------------------

Row_Buffer_Locality = 0.119972
Row_Buffer_Locality_read = 0.120334
Row_Buffer_Locality_write = 0.078947
Bank_Level_Parallism = 2.362033
Bank_Level_Parallism_Col = 1.536607
Bank_Level_Parallism_Ready = 1.037178
write_to_read_ratio_blp_rw_average = 0.015714
GrpLevelPara = 1.382196 

BW Util details:
bwutil = 0.060191 
total_CMD = 148362 
util_bw = 8930 
Wasted_Col = 56649 
Wasted_Row = 30495 
Idle = 52288 

BW Util Bottlenecks: 
RCDc_limit = 82057 
RCDWRc_limit = 589 
WTRc_limit = 2580 
RTWc_limit = 1435 
CCDLc_limit = 2241 
rwq = 0 
CCDLc_limit_alone = 1960 
WTRc_limit_alone = 2360 
RTWc_limit_alone = 1374 

Commands details: 
total_CMD = 148362 
n_nop = 125323 
Read = 8626 
Write = 0 
L2_Alloc = 0 
L2_WB = 304 
n_act = 7658 
n_pre = 7642 
n_ref = 0 
n_req = 8702 
total_req = 8930 

Dual Bus Interface Util: 
issued_total_row = 15300 
issued_total_col = 8930 
Row_Bus_Util =  0.103126 
CoL_Bus_Util = 0.060191 
Either_Row_CoL_Bus_Util = 0.155289 
Issued_on_Two_Bus_Simul_Util = 0.008028 
issued_two_Eff = 0.051695 
queue_avg = 0.311097 


dram_util_bins: 0 0 0 0 0 0 0 0 0 0
dram_eff_bins: 0 0 0 0 0 0 0 0 0 0
mrqq: max=17 avg=0.311097
Memory Partition 30: 
Cache L2_bank_060:
MSHR contents

Cache L2_bank_061:
MSHR contents

In Dram Latency Queue (total = 0): 
DRAM[30]: 16 bks, busW=16 BL=2 CL=12, tRRD=3 tCCD=1, tRCD=12 tRAS=28 tRP=12 tRC=40
n_cmd=148362 n_nop=125597 n_act=7509 n_pre=7493 n_ref_event=0 n_req=8608 n_rd=8534 n_rd_L2_A=0 n_write=0 n_wr_bk=296 bw_util=0.05952
n_activity=116330 dram_eff=0.0759
bk0: 498a 136589i bk1: 446a 137919i bk2: 604a 133725i bk3: 582a 134080i bk4: 634a 132641i bk5: 602a 133472i bk6: 634a 132541i bk7: 574a 134013i bk8: 452a 137404i bk9: 534a 134137i bk10: 548a 133509i bk11: 520a 135146i bk12: 444a 137169i bk13: 518a 135398i bk14: 490a 136477i bk15: 454a 137741i 

------------------------------------------------------------------------

Row_Buffer_Locality = 0.127672
Row_Buffer_Locality_read = 0.127842
Row_Buffer_Locality_write = 0.108108
Bank_Level_Parallism = 2.299977
Bank_Level_Parallism_Col = 1.522677
Bank_Level_Parallism_Ready = 1.031710
write_to_read_ratio_blp_rw_average = 0.017194
GrpLevelPara = 1.382632 

BW Util details:
bwutil = 0.059517 
total_CMD = 148362 
util_bw = 8830 
Wasted_Col = 56125 
Wasted_Row = 30889 
Idle = 52518 

BW Util Bottlenecks: 
RCDc_limit = 80849 
RCDWRc_limit = 546 
WTRc_limit = 2249 
RTWc_limit = 1525 
CCDLc_limit = 2088 
rwq = 0 
CCDLc_limit_alone = 1813 
WTRc_limit_alone = 2045 
RTWc_limit_alone = 1454 

Commands details: 
total_CMD = 148362 
n_nop = 125597 
Read = 8534 
Write = 0 
L2_Alloc = 0 
L2_WB = 296 
n_act = 7509 
n_pre = 7493 
n_ref = 0 
n_req = 8608 
total_req = 8830 

Dual Bus Interface Util: 
issued_total_row = 15002 
issued_total_col = 8830 
Row_Bus_Util =  0.101118 
CoL_Bus_Util = 0.059517 
Either_Row_CoL_Bus_Util = 0.153442 
Issued_on_Two_Bus_Simul_Util = 0.007192 
issued_two_Eff = 0.046870 
queue_avg = 0.255733 


dram_util_bins: 0 0 0 0 0 0 0 0 0 0
dram_eff_bins: 0 0 0 0 0 0 0 0 0 0
mrqq: max=14 avg=0.255733
Memory Partition 31: 
Cache L2_bank_062:
MSHR contents

Cache L2_bank_063:
MSHR contents

In Dram Latency Queue (total = 0): 
DRAM[31]: 16 bks, busW=16 BL=2 CL=12, tRRD=3 tCCD=1, tRCD=12 tRAS=28 tRP=12 tRC=40
n_cmd=148362 n_nop=125813 n_act=7414 n_pre=7398 n_ref_event=0 n_req=8543 n_rd=8466 n_rd_L2_A=0 n_write=0 n_wr_bk=308 bw_util=0.05914
n_activity=114706 dram_eff=0.07649
bk0: 490a 136745i bk1: 404a 139257i bk2: 522a 135847i bk3: 618a 133441i bk4: 602a 134193i bk5: 594a 133550i bk6: 606a 133398i bk7: 550a 134881i bk8: 504a 135800i bk9: 556a 133380i bk10: 534a 133667i bk11: 510a 135233i bk12: 494a 135502i bk13: 536a 135225i bk14: 516a 134969i bk15: 430a 138839i 

------------------------------------------------------------------------

Row_Buffer_Locality = 0.132155
Row_Buffer_Locality_read = 0.132766
Row_Buffer_Locality_write = 0.064935
Bank_Level_Parallism = 2.317326
Bank_Level_Parallism_Col = 1.538059
Bank_Level_Parallism_Ready = 1.041030
write_to_read_ratio_blp_rw_average = 0.016835
GrpLevelPara = 1.386384 

BW Util details:
bwutil = 0.059139 
total_CMD = 148362 
util_bw = 8774 
Wasted_Col = 54936 
Wasted_Row = 30540 
Idle = 54112 

BW Util Bottlenecks: 
RCDc_limit = 79484 
RCDWRc_limit = 598 
WTRc_limit = 2585 
RTWc_limit = 1516 
CCDLc_limit = 2207 
rwq = 0 
CCDLc_limit_alone = 1880 
WTRc_limit_alone = 2320 
RTWc_limit_alone = 1454 

Commands details: 
total_CMD = 148362 
n_nop = 125813 
Read = 8466 
Write = 0 
L2_Alloc = 0 
L2_WB = 308 
n_act = 7414 
n_pre = 7398 
n_ref = 0 
n_req = 8543 
total_req = 8774 

Dual Bus Interface Util: 
issued_total_row = 14812 
issued_total_col = 8774 
Row_Bus_Util =  0.099837 
CoL_Bus_Util = 0.059139 
Either_Row_CoL_Bus_Util = 0.151986 
Issued_on_Two_Bus_Simul_Util = 0.006990 
issued_two_Eff = 0.045989 
queue_avg = 0.264380 


dram_util_bins: 0 0 0 0 0 0 0 0 0 0
dram_eff_bins: 0 0 0 0 0 0 0 0 0 0
mrqq: max=15 avg=0.26438

========= L2 cache stats =========
L2_cache_bank[0]: Access = 4926, Miss = 4630, Miss_rate = 0.940, Pending_hits = 0, Reservation_fails = 0
L2_cache_bank[1]: Access = 4884, Miss = 4588, Miss_rate = 0.939, Pending_hits = 0, Reservation_fails = 0
L2_cache_bank[2]: Access = 4860, Miss = 4558, Miss_rate = 0.938, Pending_hits = 0, Reservation_fails = 0
L2_cache_bank[3]: Access = 4880, Miss = 4584, Miss_rate = 0.939, Pending_hits = 0, Reservation_fails = 0
L2_cache_bank[4]: Access = 4868, Miss = 4564, Miss_rate = 0.938, Pending_hits = 0, Reservation_fails = 0
L2_cache_bank[5]: Access = 4810, Miss = 4522, Miss_rate = 0.940, Pending_hits = 0, Reservation_fails = 0
L2_cache_bank[6]: Access = 4876, Miss = 4538, Miss_rate = 0.931, Pending_hits = 0, Reservation_fails = 0
L2_cache_bank[7]: Access = 4714, Miss = 4422, Miss_rate = 0.938, Pending_hits = 0, Reservation_fails = 0
L2_cache_bank[8]: Access = 4918, Miss = 4610, Miss_rate = 0.937, Pending_hits = 0, Reservation_fails = 0
L2_cache_bank[9]: Access = 4954, Miss = 4680, Miss_rate = 0.945, Pending_hits = 0, Reservation_fails = 0
L2_cache_bank[10]: Access = 4922, Miss = 4624, Miss_rate = 0.939, Pending_hits = 0, Reservation_fails = 0
L2_cache_bank[11]: Access = 4918, Miss = 4614, Miss_rate = 0.938, Pending_hits = 0, Reservation_fails = 0
L2_cache_bank[12]: Access = 4816, Miss = 4514, Miss_rate = 0.937, Pending_hits = 0, Reservation_fails = 0
L2_cache_bank[13]: Access = 4870, Miss = 4596, Miss_rate = 0.944, Pending_hits = 0, Reservation_fails = 0
L2_cache_bank[14]: Access = 4864, Miss = 4550, Miss_rate = 0.935, Pending_hits = 0, Reservation_fails = 0
L2_cache_bank[15]: Access = 4880, Miss = 4590, Miss_rate = 0.941, Pending_hits = 0, Reservation_fails = 0
L2_cache_bank[16]: Access = 4882, Miss = 4574, Miss_rate = 0.937, Pending_hits = 0, Reservation_fails = 0
L2_cache_bank[17]: Access = 4820, Miss = 4508, Miss_rate = 0.935, Pending_hits = 0, Reservation_fails = 0
L2_cache_bank[18]: Access = 4782, Miss = 4484, Miss_rate = 0.938, Pending_hits = 0, Reservation_fails = 0
L2_cache_bank[19]: Access = 4998, Miss = 4696, Miss_rate = 0.940, Pending_hits = 0, Reservation_fails = 0
L2_cache_bank[20]: Access = 4818, Miss = 4514, Miss_rate = 0.937, Pending_hits = 0, Reservation_fails = 0
L2_cache_bank[21]: Access = 4842, Miss = 4514, Miss_rate = 0.932, Pending_hits = 0, Reservation_fails = 0
L2_cache_bank[22]: Access = 4806, Miss = 4526, Miss_rate = 0.942, Pending_hits = 2, Reservation_fails = 0
L2_cache_bank[23]: Access = 4930, Miss = 4646, Miss_rate = 0.942, Pending_hits = 0, Reservation_fails = 0
L2_cache_bank[24]: Access = 4810, Miss = 4516, Miss_rate = 0.939, Pending_hits = 0, Reservation_fails = 0
L2_cache_bank[25]: Access = 4764, Miss = 4484, Miss_rate = 0.941, Pending_hits = 0, Reservation_fails = 0
L2_cache_bank[26]: Access = 4684, Miss = 4366, Miss_rate = 0.932, Pending_hits = 0, Reservation_fails = 0
L2_cache_bank[27]: Access = 4836, Miss = 4558, Miss_rate = 0.943, Pending_hits = 0, Reservation_fails = 0
L2_cache_bank[28]: Access = 4992, Miss = 4710, Miss_rate = 0.944, Pending_hits = 0, Reservation_fails = 0
L2_cache_bank[29]: Access = 5018, Miss = 4756, Miss_rate = 0.948, Pending_hits = 0, Reservation_fails = 0
L2_cache_bank[30]: Access = 5090, Miss = 4794, Miss_rate = 0.942, Pending_hits = 0, Reservation_fails = 0
L2_cache_bank[31]: Access = 5002, Miss = 4728, Miss_rate = 0.945, Pending_hits = 0, Reservation_fails = 0
L2_cache_bank[32]: Access = 4876, Miss = 4560, Miss_rate = 0.935, Pending_hits = 0, Reservation_fails = 0
L2_cache_bank[33]: Access = 4614, Miss = 4316, Miss_rate = 0.935, Pending_hits = 0, Reservation_fails = 0
L2_cache_bank[34]: Access = 4928, Miss = 4620, Miss_rate = 0.938, Pending_hits = 0, Reservation_fails = 0
L2_cache_bank[35]: Access = 4834, Miss = 4530, Miss_rate = 0.937, Pending_hits = 0, Reservation_fails = 0
L2_cache_bank[36]: Access = 4960, Miss = 4658, Miss_rate = 0.939, Pending_hits = 0, Reservation_fails = 0
L2_cache_bank[37]: Access = 4874, Miss = 4562, Miss_rate = 0.936, Pending_hits = 0, Reservation_fails = 0
L2_cache_bank[38]: Access = 4944, Miss = 4656, Miss_rate = 0.942, Pending_hits = 0, Reservation_fails = 0
L2_cache_bank[39]: Access = 5030, Miss = 4754, Miss_rate = 0.945, Pending_hits = 0, Reservation_fails = 0
L2_cache_bank[40]: Access = 4978, Miss = 4698, Miss_rate = 0.944, Pending_hits = 0, Reservation_fails = 0
L2_cache_bank[41]: Access = 4886, Miss = 4590, Miss_rate = 0.939, Pending_hits = 0, Reservation_fails = 0
L2_cache_bank[42]: Access = 4934, Miss = 4624, Miss_rate = 0.937, Pending_hits = 0, Reservation_fails = 0
L2_cache_bank[43]: Access = 4940, Miss = 4660, Miss_rate = 0.943, Pending_hits = 0, Reservation_fails = 0
L2_cache_bank[44]: Access = 4856, Miss = 4532, Miss_rate = 0.933, Pending_hits = 0, Reservation_fails = 0
L2_cache_bank[45]: Access = 4750, Miss = 4480, Miss_rate = 0.943, Pending_hits = 0, Reservation_fails = 0
L2_cache_bank[46]: Access = 4810, Miss = 4520, Miss_rate = 0.940, Pending_hits = 0, Reservation_fails = 0
L2_cache_bank[47]: Access = 4710, Miss = 4420, Miss_rate = 0.938, Pending_hits = 0, Reservation_fails = 0
L2_cache_bank[48]: Access = 4746, Miss = 4454, Miss_rate = 0.938, Pending_hits = 0, Reservation_fails = 0
L2_cache_bank[49]: Access = 4860, Miss = 4536, Miss_rate = 0.933, Pending_hits = 0, Reservation_fails = 0
L2_cache_bank[50]: Access = 4858, Miss = 4552, Miss_rate = 0.937, Pending_hits = 0, Reservation_fails = 0
L2_cache_bank[51]: Access = 4816, Miss = 4496, Miss_rate = 0.934, Pending_hits = 0, Reservation_fails = 0
L2_cache_bank[52]: Access = 4738, Miss = 4374, Miss_rate = 0.923, Pending_hits = 0, Reservation_fails = 0
L2_cache_bank[53]: Access = 4738, Miss = 4424, Miss_rate = 0.934, Pending_hits = 0, Reservation_fails = 0
L2_cache_bank[54]: Access = 4842, Miss = 4560, Miss_rate = 0.942, Pending_hits = 0, Reservation_fails = 0
L2_cache_bank[55]: Access = 4750, Miss = 4444, Miss_rate = 0.936, Pending_hits = 2, Reservation_fails = 0
L2_cache_bank[56]: Access = 4854, Miss = 4582, Miss_rate = 0.944, Pending_hits = 0, Reservation_fails = 0
L2_cache_bank[57]: Access = 4816, Miss = 4534, Miss_rate = 0.941, Pending_hits = 0, Reservation_fails = 0
L2_cache_bank[58]: Access = 4830, Miss = 4536, Miss_rate = 0.939, Pending_hits = 0, Reservation_fails = 0
L2_cache_bank[59]: Access = 5018, Miss = 4754, Miss_rate = 0.947, Pending_hits = 0, Reservation_fails = 0
L2_cache_bank[60]: Access = 4914, Miss = 4608, Miss_rate = 0.938, Pending_hits = 0, Reservation_fails = 0
L2_cache_bank[61]: Access = 4836, Miss = 4566, Miss_rate = 0.944, Pending_hits = 0, Reservation_fails = 0
L2_cache_bank[62]: Access = 4894, Miss = 4588, Miss_rate = 0.937, Pending_hits = 2, Reservation_fails = 0
L2_cache_bank[63]: Access = 4808, Miss = 4518, Miss_rate = 0.940, Pending_hits = 0, Reservation_fails = 0
L2_total_cache_accesses = 311276
L2_total_cache_misses = 292264
L2_total_cache_miss_rate = 0.9389
L2_total_cache_pending_hits = 6
L2_total_cache_reservation_fails = 0
L2_total_cache_breakdown:
	L2_cache_stats_breakdown[GLOBAL_ACC_R][HIT] = 6654
	L2_cache_stats_breakdown[GLOBAL_ACC_R][HIT_RESERVED] = 6
	L2_cache_stats_breakdown[GLOBAL_ACC_R][MISS] = 124899
	L2_cache_stats_breakdown[GLOBAL_ACC_R][RESERVATION_FAIL] = 0
	L2_cache_stats_breakdown[GLOBAL_ACC_R][SECTOR_MISS] = 146949
	L2_cache_stats_breakdown[LOCAL_ACC_R][HIT] = 0
	L2_cache_stats_breakdown[LOCAL_ACC_R][HIT_RESERVED] = 0
	L2_cache_stats_breakdown[LOCAL_ACC_R][MISS] = 0
	L2_cache_stats_breakdown[LOCAL_ACC_R][RESERVATION_FAIL] = 0
	L2_cache_stats_breakdown[LOCAL_ACC_R][SECTOR_MISS] = 0
	L2_cache_stats_breakdown[CONST_ACC_R][HIT] = 0
	L2_cache_stats_breakdown[CONST_ACC_R][HIT_RESERVED] = 0
	L2_cache_stats_breakdown[CONST_ACC_R][MISS] = 0
	L2_cache_stats_breakdown[CONST_ACC_R][RESERVATION_FAIL] = 0
	L2_cache_stats_breakdown[CONST_ACC_R][SECTOR_MISS] = 0
	L2_cache_stats_breakdown[TEXTURE_ACC_R][HIT] = 0
	L2_cache_stats_breakdown[TEXTURE_ACC_R][HIT_RESERVED] = 0
	L2_cache_stats_breakdown[TEXTURE_ACC_R][MISS] = 0
	L2_cache_stats_breakdown[TEXTURE_ACC_R][RESERVATION_FAIL] = 0
	L2_cache_stats_breakdown[TEXTURE_ACC_R][SECTOR_MISS] = 0
	L2_cache_stats_breakdown[GLOBAL_ACC_W][HIT] = 12352
	L2_cache_stats_breakdown[GLOBAL_ACC_W][HIT_RESERVED] = 0
	L2_cache_stats_breakdown[GLOBAL_ACC_W][MISS] = 2552
	L2_cache_stats_breakdown[GLOBAL_ACC_W][RESERVATION_FAIL] = 0
	L2_cache_stats_breakdown[GLOBAL_ACC_W][SECTOR_MISS] = 17864
	L2_cache_stats_breakdown[LOCAL_ACC_W][HIT] = 0
	L2_cache_stats_breakdown[LOCAL_ACC_W][HIT_RESERVED] = 0
	L2_cache_stats_breakdown[LOCAL_ACC_W][MISS] = 0
	L2_cache_stats_breakdown[LOCAL_ACC_W][RESERVATION_FAIL] = 0
	L2_cache_stats_breakdown[LOCAL_ACC_W][SECTOR_MISS] = 0
	L2_cache_stats_breakdown[L1_WRBK_ACC][HIT] = 0
	L2_cache_stats_breakdown[L1_WRBK_ACC][HIT_RESERVED] = 0
	L2_cache_stats_breakdown[L1_WRBK_ACC][MISS] = 0
	L2_cache_stats_breakdown[L1_WRBK_ACC][RESERVATION_FAIL] = 0
	L2_cache_stats_breakdown[L1_WRBK_ACC][SECTOR_MISS] = 0
	L2_cache_stats_breakdown[L2_WRBK_ACC][HIT] = 0
	L2_cache_stats_breakdown[L2_WRBK_ACC][HIT_RESERVED] = 0
	L2_cache_stats_breakdown[L2_WRBK_ACC][MISS] = 0
	L2_cache_stats_breakdown[L2_WRBK_ACC][RESERVATION_FAIL] = 0
	L2_cache_stats_breakdown[L2_WRBK_ACC][SECTOR_MISS] = 0
	L2_cache_stats_breakdown[INST_ACC_R][HIT] = 0
	L2_cache_stats_breakdown[INST_ACC_R][HIT_RESERVED] = 0
	L2_cache_stats_breakdown[INST_ACC_R][MISS] = 0
	L2_cache_stats_breakdown[INST_ACC_R][RESERVATION_FAIL] = 0
	L2_cache_stats_breakdown[INST_ACC_R][SECTOR_MISS] = 0
	L2_cache_stats_breakdown[L1_WR_ALLOC_R][HIT] = 0
	L2_cache_stats_breakdown[L1_WR_ALLOC_R][HIT_RESERVED] = 0
	L2_cache_stats_breakdown[L1_WR_ALLOC_R][MISS] = 0
	L2_cache_stats_breakdown[L1_WR_ALLOC_R][RESERVATION_FAIL] = 0
	L2_cache_stats_breakdown[L1_WR_ALLOC_R][SECTOR_MISS] = 0
	L2_cache_stats_breakdown[L2_WR_ALLOC_R][HIT] = 0
	L2_cache_stats_breakdown[L2_WR_ALLOC_R][HIT_RESERVED] = 0
	L2_cache_stats_breakdown[L2_WR_ALLOC_R][MISS] = 0
	L2_cache_stats_breakdown[L2_WR_ALLOC_R][RESERVATION_FAIL] = 0
	L2_cache_stats_breakdown[L2_WR_ALLOC_R][SECTOR_MISS] = 0
	L2_cache_stats_breakdown[GLOBAL_ACC_R][TOTAL_ACCESS] = 278508
	L2_cache_stats_breakdown[GLOBAL_ACC_W][TOTAL_ACCESS] = 32768
L2_total_cache_reservation_fail_breakdown:
L2_cache_data_port_util = 0.002
L2_cache_fill_port_util = 0.021

icnt_total_pkts_mem_to_simt=311276
icnt_total_pkts_simt_to_mem=311276
LD_mem_lat_dist  0 0 0 0 0 0 0 0 0 0 0 0 0 0 0 0 0 0 0 0 0 0 0 0 0 0 0
ST_mem_lat_dist  0 0 0 0 0 0 0 0 0 0 0 0 0 0 0 0 0 0 0 0 0 0 0 0 0 0 0
----------------------------Interconnect-DETAILS--------------------------------
Req_Network_injected_packets_num = 311276
Req_Network_cycles = 197585
Req_Network_injected_packets_per_cycle =       1.5754 
Req_Network_conflicts_per_cycle =       0.0194
Req_Network_conflicts_per_cycle_util =       0.0251
Req_Bank_Level_Parallism =       2.0412
Req_Network_in_buffer_full_per_cycle =       0.0000
Req_Network_in_buffer_avg_util =       0.0004
Req_Network_out_buffer_full_per_cycle =       0.0000
Req_Network_out_buffer_avg_util =       0.0246

Reply_Network_injected_packets_num = 311276
Reply_Network_cycles = 197585
Reply_Network_injected_packets_per_cycle =        1.5754
Reply_Network_conflicts_per_cycle =        0.4650
Reply_Network_conflicts_per_cycle_util =       0.6175
Reply_Bank_Level_Parallism =       2.0919
Reply_Network_in_buffer_full_per_cycle =       0.0000
Reply_Network_in_buffer_avg_util =       0.0074
Reply_Network_out_buffer_full_per_cycle =       0.0000
Reply_Network_out_buffer_avg_util =       0.0197
----------------------------END-of-Interconnect-DETAILS-------------------------


gpgpu_simulation_time = 0 days, 0 hrs, 7 min, 23 sec (443 sec)
gpgpu_simulation_rate = 41329 (inst/sec)
gpgpu_simulation_rate = 446 (cycle/sec)
gpgpu_silicon_slowdown = 2538116x
GPGPU-Sim: detected inactive GPU simulation thread

total_us: 1 laps, 377886395 us


gen_hists: 1 laps, 377886395.000000 us/lap, 47235799.375000 us/cta

GPGPU-Sim: synchronize waiting for inactive GPU simulation
GPGPU-Sim API: Stream Manager State
GPGPU-Sim API:    stream 1 has 1 operations
GPGPU-Sim API:       0 :  stream operation memcpy device-to-host
GPGPU-Sim: detected inactive GPU simulation thread
GPGPU-Sim: *** exit detected ***
