

        *** GPGPU-Sim Simulator Version 4.0.0  [build gpgpu-sim_git-commit-_modified_0.0] ***


GPGPU-Sim PTX: simulation mode 0 (can change with PTX_SIM_MODE_FUNC environment variable:
               1=functional simulation only, 0=detailed performance simulator)
GPGPU-Sim PTX: overriding embedded ptx with ptx file (PTX_SIM_USE_PTX_FILE is set)
GPGPU-Sim: Configuration options:

-save_embedded_ptx                      0 # saves ptx files embedded in binary as <n>.ptx
-keep                                   0 # keep intermediate files created by GPGPU-Sim when interfacing with external programs
-gpgpu_ptx_save_converted_ptxplus                    0 # Saved converted ptxplus to a file
-gpgpu_occupancy_sm_number                   70 # The SM number to pass to ptxas when getting register usage for computing GPU occupancy. This parameter is required in the config.
-ptx_opcode_latency_int      4,13,4,5,145,21 # Opcode latencies for integers <ADD,MAX,MUL,MAD,DIV,SHFL>Default 1,1,19,25,145,32
-ptx_opcode_latency_fp          4,13,4,5,39 # Opcode latencies for single precision floating points <ADD,MAX,MUL,MAD,DIV>Default 1,1,1,1,30
-ptx_opcode_latency_dp         8,19,8,8,330 # Opcode latencies for double precision floating points <ADD,MAX,MUL,MAD,DIV>Default 8,8,8,8,335
-ptx_opcode_latency_sfu                  100 # Opcode latencies for SFU instructionsDefault 8
-ptx_opcode_latency_tesnor                   64 # Opcode latencies for Tensor instructionsDefault 64
-ptx_opcode_initiation_int          2,2,2,2,8,4 # Opcode initiation intervals for integers <ADD,MAX,MUL,MAD,DIV,SHFL>Default 1,1,4,4,32,4
-ptx_opcode_initiation_fp            2,2,2,2,4 # Opcode initiation intervals for single precision floating points <ADD,MAX,MUL,MAD,DIV>Default 1,1,1,1,5
-ptx_opcode_initiation_dp          4,4,4,4,130 # Opcode initiation intervals for double precision floating points <ADD,MAX,MUL,MAD,DIV>Default 8,8,8,8,130
-ptx_opcode_initiation_sfu                    8 # Opcode initiation intervals for sfu instructionsDefault 8
-ptx_opcode_initiation_tensor                   64 # Opcode initiation intervals for tensor instructionsDefault 64
-cdp_latency         7200,8000,100,12000,1600 # CDP API latency <cudaStreamCreateWithFlags, cudaGetParameterBufferV2_init_perWarp, cudaGetParameterBufferV2_perKernel, cudaLaunchDeviceV2_init_perWarp, cudaLaunchDevicV2_perKernel>Default 7200,8000,100,12000,1600
-network_mode                           2 # Interconnection network mode
-inter_config_file                   mesh # Interconnection network config file
-icnt_in_buffer_limit                  512 # in_buffer_limit
-icnt_out_buffer_limit                  512 # out_buffer_limit
-icnt_subnets                           2 # subnets
-icnt_arbiter_algo                      1 # arbiter_algo
-icnt_verbose                           0 # inct_verbose
-icnt_grant_cycles                      1 # grant_cycles
-gpgpu_ptx_use_cuobjdump                    1 # Use cuobjdump to extract ptx and sass from binaries
-gpgpu_experimental_lib_support                    0 # Try to extract code from cuda libraries [Broken because of unknown cudaGetExportTable]
-checkpoint_option                      0 #  checkpointing flag (0 = no checkpoint)
-checkpoint_kernel                      1 #  checkpointing during execution of which kernel (1- 1st kernel)
-checkpoint_CTA                         0 #  checkpointing after # of CTA (< less than total CTA)
-resume_option                          0 #  resume flag (0 = no resume)
-resume_kernel                          0 #  Resume from which kernel (1= 1st kernel)
-resume_CTA                             0 #  resume from which CTA 
-checkpoint_CTA_t                       0 #  resume from which CTA 
-checkpoint_insn_Y                      0 #  resume from which CTA 
-gpgpu_ptx_convert_to_ptxplus                    0 # Convert SASS (native ISA) to ptxplus and run ptxplus
-gpgpu_ptx_force_max_capability                   70 # Force maximum compute capability
-gpgpu_ptx_inst_debug_to_file                    0 # Dump executed instructions' debug information to file
-gpgpu_ptx_inst_debug_file       inst_debug.txt # Executed instructions' debug output file
-gpgpu_ptx_inst_debug_thread_uid                    1 # Thread UID for executed instructions' debug output
-gpgpu_n_mem_for_l2wb_pcommit                   32 # number of memory modules (e.g. memory controllers) in gpu
-gpgpu_n_sub_partition_per_mchannel_for_l2wb_pcommit                    2 # number of memory subpartition in each memory module
-gpgpu_dl2_bsize_for_l2wb_pcommit                  128 # default 128 bytes
-gpgpu_simd_model                       1 # 1 = post-dominator
-gpgpu_shader_core_pipeline              2048:32 # shader core pipeline config, i.e., {<nthread>:<warpsize>}
-gpgpu_tex_cache:l1  N:4:128:256,L:R:m:N:L,T:512:8,128:2 # per-shader L1 texture cache  (READ-ONLY) config  {<nsets>:<bsize>:<assoc>,<rep>:<wr>:<alloc>:<wr_alloc>,<mshr>:<N>:<merge>,<mq>:<rf>}
-gpgpu_const_cache:l1 N:128:64:8,L:R:f:N:L,S:2:64,4 # per-shader L1 constant memory cache  (READ-ONLY) config  {<nsets>:<bsize>:<assoc>,<rep>:<wr>:<alloc>:<wr_alloc>,<mshr>:<N>:<merge>,<mq>} 
-gpgpu_cache:il1     N:64:128:16,L:R:f:N:L,S:2:48,4 # shader L1 instruction cache config  {<nsets>:<bsize>:<assoc>,<rep>:<wr>:<alloc>:<wr_alloc>,<mshr>:<N>:<merge>,<mq>} 
-gpgpu_cache:dl1     S:1:128:256,L:L:s:N:L,A:256:8,16:0,32 # per-shader L1 data cache config  {<nsets>:<bsize>:<assoc>,<rep>:<wr>:<alloc>:<wr_alloc>,<mshr>:<N>:<merge>,<mq> | none}
-gpgpu_l1_banks                         4 # The number of L1 cache banks
-gpgpu_l1_banks_byte_interleaving                   32 # l1 banks byte interleaving granularity
-gpgpu_l1_banks_hashing_function                    0 # l1 banks hashing function
-gpgpu_l1_latency                      20 # L1 Hit Latency
-gpgpu_smem_latency                    20 # smem Latency
-gpgpu_cache:dl1PrefL1                 none # per-shader L1 data cache config  {<nsets>:<bsize>:<assoc>,<rep>:<wr>:<alloc>:<wr_alloc>,<mshr>:<N>:<merge>,<mq> | none}
-gpgpu_cache:dl1PrefShared                 none # per-shader L1 data cache config  {<nsets>:<bsize>:<assoc>,<rep>:<wr>:<alloc>:<wr_alloc>,<mshr>:<N>:<merge>,<mq> | none}
-gpgpu_gmem_skip_L1D                    0 # global memory access skip L1D cache (implements -Xptxas -dlcm=cg, default=no skip)
-gpgpu_perfect_mem                      0 # enable perfect memory mode (no cache miss)
-n_regfile_gating_group                    4 # group of lanes that should be read/written together)
-gpgpu_clock_gated_reg_file                    0 # enable clock gated reg file for power calculations
-gpgpu_clock_gated_lanes                    0 # enable clock gated lanes for power calculations
-gpgpu_shader_registers                65536 # Number of registers per shader core. Limits number of concurrent CTAs. (default 8192)
-gpgpu_registers_per_block                65536 # Maximum number of registers per CTA. (default 8192)
-gpgpu_ignore_resources_limitation                    0 # gpgpu_ignore_resources_limitation (default 0)
-gpgpu_shader_cta                      32 # Maximum number of concurrent CTAs in shader (default 8)
-gpgpu_num_cta_barriers                   16 # Maximum number of named barriers per CTA (default 16)
-gpgpu_n_clusters                      80 # number of processing clusters
-gpgpu_n_cores_per_cluster                    1 # number of simd cores per cluster
-gpgpu_n_cluster_ejection_buffer_size                   32 # number of packets in ejection buffer
-gpgpu_n_ldst_response_buffer_size                    2 # number of response packets in ld/st unit ejection buffer
-gpgpu_shmem_per_block                65536 # Size of shared memory per thread block or CTA (default 48kB)
-gpgpu_shmem_size                   98304 # Size of shared memory per shader core (default 16kB)
-gpgpu_adaptive_cache_config            536870913 # adaptive_cache_config
-gpgpu_shmem_sizeDefault                98304 # Size of shared memory per shader core (default 16kB)
-gpgpu_shmem_size_PrefL1                16384 # Size of shared memory per shader core (default 16kB)
-gpgpu_shmem_size_PrefShared                16384 # Size of shared memory per shader core (default 16kB)
-gpgpu_shmem_num_banks                   32 # Number of banks in the shared memory in each shader core (default 16)
-gpgpu_shmem_limited_broadcast                    0 # Limit shared memory to do one broadcast per cycle (default on)
-gpgpu_shmem_warp_parts                    1 # Number of portions a warp is divided into for shared memory bank conflict check 
-gpgpu_mem_unit_ports                    1 # The number of memory transactions allowed per core cycle
-gpgpu_shmem_warp_parts                    1 # Number of portions a warp is divided into for shared memory bank conflict check 
-gpgpu_warpdistro_shader                   -1 # Specify which shader core to collect the warp size distribution from
-gpgpu_warp_issue_shader                    0 # Specify which shader core to collect the warp issue distribution from
-gpgpu_local_mem_map                    1 # Mapping from local memory space address to simulated GPU physical address space (default = enabled)
-gpgpu_num_reg_banks                   16 # Number of register banks (default = 8)
-gpgpu_reg_bank_use_warp_id                    0 # Use warp ID in mapping registers to banks (default = off)
-gpgpu_sub_core_model                    1 # Sub Core Volta/Pascal model (default = off)
-gpgpu_enable_specialized_operand_collector                    0 # enable_specialized_operand_collector
-gpgpu_operand_collector_num_units_sp                    4 # number of collector units (default = 4)
-gpgpu_operand_collector_num_units_dp                    0 # number of collector units (default = 0)
-gpgpu_operand_collector_num_units_sfu                    4 # number of collector units (default = 4)
-gpgpu_operand_collector_num_units_int                    0 # number of collector units (default = 0)
-gpgpu_operand_collector_num_units_tensor_core                    4 # number of collector units (default = 4)
-gpgpu_operand_collector_num_units_mem                    2 # number of collector units (default = 2)
-gpgpu_operand_collector_num_units_gen                    8 # number of collector units (default = 0)
-gpgpu_operand_collector_num_in_ports_sp                    1 # number of collector unit in ports (default = 1)
-gpgpu_operand_collector_num_in_ports_dp                    0 # number of collector unit in ports (default = 0)
-gpgpu_operand_collector_num_in_ports_sfu                    1 # number of collector unit in ports (default = 1)
-gpgpu_operand_collector_num_in_ports_int                    0 # number of collector unit in ports (default = 0)
-gpgpu_operand_collector_num_in_ports_tensor_core                    1 # number of collector unit in ports (default = 1)
-gpgpu_operand_collector_num_in_ports_mem                    1 # number of collector unit in ports (default = 1)
-gpgpu_operand_collector_num_in_ports_gen                    8 # number of collector unit in ports (default = 0)
-gpgpu_operand_collector_num_out_ports_sp                    1 # number of collector unit in ports (default = 1)
-gpgpu_operand_collector_num_out_ports_dp                    0 # number of collector unit in ports (default = 0)
-gpgpu_operand_collector_num_out_ports_sfu                    1 # number of collector unit in ports (default = 1)
-gpgpu_operand_collector_num_out_ports_int                    0 # number of collector unit in ports (default = 0)
-gpgpu_operand_collector_num_out_ports_tensor_core                    1 # number of collector unit in ports (default = 1)
-gpgpu_operand_collector_num_out_ports_mem                    1 # number of collector unit in ports (default = 1)
-gpgpu_operand_collector_num_out_ports_gen                    8 # number of collector unit in ports (default = 0)
-gpgpu_coalesce_arch                   60 # Coalescing arch (GT200 = 13, Fermi = 20)
-gpgpu_num_sched_per_core                    4 # Number of warp schedulers per core
-gpgpu_max_insn_issue_per_warp                    1 # Max number of instructions that can be issued per warp in one cycle by scheduler (either 1 or 2)
-gpgpu_dual_issue_diff_exec_units                    1 # should dual issue use two different execution unit resources (Default = 1)
-gpgpu_simt_core_sim_order                    1 # Select the simulation order of cores in a cluster (0=Fix, 1=Round-Robin)
-gpgpu_pipeline_widths 4,4,4,4,4,4,4,4,4,4,8,4,4 # Pipeline widths ID_OC_SP,ID_OC_DP,ID_OC_INT,ID_OC_SFU,ID_OC_MEM,OC_EX_SP,OC_EX_DP,OC_EX_INT,OC_EX_SFU,OC_EX_MEM,EX_WB,ID_OC_TENSOR_CORE,OC_EX_TENSOR_CORE
-gpgpu_tensor_core_avail                    1 # Tensor Core Available (default=0)
-gpgpu_num_sp_units                     4 # Number of SP units (default=1)
-gpgpu_num_dp_units                     4 # Number of DP units (default=0)
-gpgpu_num_int_units                    4 # Number of INT units (default=0)
-gpgpu_num_sfu_units                    4 # Number of SF units (default=1)
-gpgpu_num_tensor_core_units                    4 # Number of tensor_core units (default=1)
-gpgpu_num_mem_units                    1 # Number if ldst units (default=1) WARNING: not hooked up to anything
-gpgpu_scheduler                      gto # Scheduler configuration: < lrr | gto | two_level_active > If two_level_active:<num_active_warps>:<inner_prioritization>:<outer_prioritization>For complete list of prioritization values see shader.h enum scheduler_prioritization_typeDefault: gto
-gpgpu_concurrent_kernel_sm                    0 # Support concurrent kernels on a SM (default = disabled)
-gpgpu_perfect_inst_const_cache                    1 # perfect inst and const cache mode, so all inst and const hits in the cache(default = disabled)
-gpgpu_inst_fetch_throughput                    4 # the number of fetched intruction per warp each cycle
-gpgpu_reg_file_port_throughput                    2 # the number ports of the register file
-specialized_unit_1         0,4,4,4,4,BRA # specialized unit config {<enabled>,<num_units>:<latency>:<initiation>,<ID_OC_SPEC>:<OC_EX_SPEC>,<NAME>}
-specialized_unit_2         0,4,4,4,4,BRA # specialized unit config {<enabled>,<num_units>:<latency>:<initiation>,<ID_OC_SPEC>:<OC_EX_SPEC>,<NAME>}
-specialized_unit_3         0,4,4,4,4,BRA # specialized unit config {<enabled>,<num_units>:<latency>:<initiation>,<ID_OC_SPEC>:<OC_EX_SPEC>,<NAME>}
-specialized_unit_4         0,4,4,4,4,BRA # specialized unit config {<enabled>,<num_units>:<latency>:<initiation>,<ID_OC_SPEC>:<OC_EX_SPEC>,<NAME>}
-specialized_unit_5         0,4,4,4,4,BRA # specialized unit config {<enabled>,<num_units>:<latency>:<initiation>,<ID_OC_SPEC>:<OC_EX_SPEC>,<NAME>}
-specialized_unit_6         0,4,4,4,4,BRA # specialized unit config {<enabled>,<num_units>:<latency>:<initiation>,<ID_OC_SPEC>:<OC_EX_SPEC>,<NAME>}
-specialized_unit_7         0,4,4,4,4,BRA # specialized unit config {<enabled>,<num_units>:<latency>:<initiation>,<ID_OC_SPEC>:<OC_EX_SPEC>,<NAME>}
-specialized_unit_8         0,4,4,4,4,BRA # specialized unit config {<enabled>,<num_units>:<latency>:<initiation>,<ID_OC_SPEC>:<OC_EX_SPEC>,<NAME>}
-gpgpu_perf_sim_memcpy                    1 # Fill the L2 cache on memcpy
-gpgpu_simple_dram_model                    0 # simple_dram_model with fixed latency and BW
-gpgpu_dram_scheduler                    1 # 0 = fifo, 1 = FR-FCFS (defaul)
-gpgpu_dram_partition_queues          64:64:64:64 # i2$:$2d:d2$:$2i
-l2_ideal                               0 # Use a ideal L2 cache that always hit
-gpgpu_cache:dl2     S:32:128:24,L:B:m:L:P,A:192:4,32:0,32 # unified banked L2 data cache config  {<nsets>:<bsize>:<assoc>,<rep>:<wr>:<alloc>:<wr_alloc>,<mshr>:<N>:<merge>,<mq>}
-gpgpu_cache:dl2_texture_only                    0 # L2 cache used for texture only
-gpgpu_n_mem                           32 # number of memory modules (e.g. memory controllers) in gpu
-gpgpu_n_sub_partition_per_mchannel                    2 # number of memory subpartition in each memory module
-gpgpu_n_mem_per_ctrlr                    1 # number of memory chips per memory controller
-gpgpu_memlatency_stat                   14 # track and display latency statistics 0x2 enables MC, 0x4 enables queue logs
-gpgpu_frfcfs_dram_sched_queue_size                   64 # 0 = unlimited (default); # entries per chip
-gpgpu_dram_return_queue_size                  192 # 0 = unlimited (default); # entries per chip
-gpgpu_dram_buswidth                   16 # default = 4 bytes (8 bytes per cycle at DDR)
-gpgpu_dram_burst_length                    2 # Burst length of each DRAM request (default = 4 data bus cycle)
-dram_data_command_freq_ratio                    2 # Frequency ratio between DRAM data bus and command bus (default = 2 times, i.e. DDR)
-gpgpu_dram_timing_opt nbk=16:CCD=1:RRD=3:RCD=12:RAS=28:RP=12:RC=40: CL=12:WL=2:CDLR=3:WR=10:nbkgrp=4:CCDL=2:RTPL=3 # DRAM timing parameters = {nbk:tCCD:tRRD:tRCD:tRAS:tRP:tRC:CL:WL:tCDLR:tWR:nbkgrp:tCCDL:tRTPL}
-gpgpu_l2_rop_latency                  160 # ROP queue latency (default 85)
-dram_latency                         200 # DRAM latency (default 30)
-dram_write_latency                   600 # DRAM write latency (default 100)
-dram_dual_bus_interface                    1 # dual_bus_interface (default = 0) 
-dram_bnk_indexing_policy                    0 # dram_bnk_indexing_policy (0 = normal indexing, 1 = Xoring with the higher bits) (Default = 0)
-dram_bnkgrp_indexing_policy                    1 # dram_bnkgrp_indexing_policy (0 = take higher bits, 1 = take lower bits) (Default = 0)
-dram_seperate_write_queue_enable                    0 # Seperate_Write_Queue_Enable
-dram_write_queue_size             32:28:16 # Write_Queue_Size
-dram_elimnate_rw_turnaround                    0 # elimnate_rw_turnaround i.e set tWTR and tRTW = 0
-icnt_flit_size                        40 # icnt_flit_size
-gpgpu_mem_addr_mapping dramid@8;00000000.00000000.00000000.00000000.0000RRRR.RRRRRRRR.RBBBCCCB.CCCSSSSS # mapping memory address to dram model {dramid@<start bit>;<memory address map>}
-gpgpu_mem_addr_test                    0 # run sweep test to check address mapping for aliased address
-gpgpu_mem_address_mask                    1 # 0 = old addressing mask, 1 = new addressing mask, 2 = new add. mask + flipped bank sel and chip sel bits
-gpgpu_memory_partition_indexing                    0 # 0 = no indexing, 1 = bitwise xoring, 2 = IPoly, 3 = custom indexing
-gpuwattch_xml_file         gpuwattch.xml # GPUWattch XML file
-power_simulation_enabled                    0 # Turn on power simulator (1=On, 0=Off)
-power_per_cycle_dump                    0 # Dump detailed power output each cycle
-power_trace_enabled                    0 # produce a file for the power trace (1=On, 0=Off)
-power_trace_zlevel                     6 # Compression level of the power trace output log (0=no comp, 9=highest)
-steady_power_levels_enabled                    0 # produce a file for the steady power levels (1=On, 0=Off)
-steady_state_definition                  8:4 # allowed deviation:number of samples
-gpgpu_max_cycle                        0 # terminates gpu simulation early (0 = no limit)
-gpgpu_max_insn                         0 # terminates gpu simulation early (0 = no limit)
-gpgpu_max_cta                          0 # terminates gpu simulation early (0 = no limit)
-gpgpu_max_completed_cta                    0 # terminates gpu simulation early (0 = no limit)
-gpgpu_runtime_stat                   500 # display runtime statistics such as dram utilization {<freq>:<flag>}
-liveness_message_freq                    1 # Minimum number of seconds between simulation liveness messages (0 = always print)
-gpgpu_compute_capability_major                    7 # Major compute capability version number
-gpgpu_compute_capability_minor                    0 # Minor compute capability version number
-gpgpu_flush_l1_cache                    1 # Flush L1 cache at the end of each kernel call
-gpgpu_flush_l2_cache                    0 # Flush L2 cache at the end of each kernel call
-gpgpu_deadlock_detect                    1 # Stop the simulation at deadlock (1=on (default), 0=off)
-gpgpu_ptx_instruction_classification                    0 # if enabled will classify ptx instruction types per kernel (Max 255 kernels now)
-gpgpu_ptx_sim_mode                     0 # Select between Performance (default) or Functional simulation (1)
-gpgpu_clock_domains 1132.0:1132.0:1132.0:850.0 # Clock Domain Frequencies in MhZ {<Core Clock>:<ICNT Clock>:<L2 Clock>:<DRAM Clock>}
-gpgpu_max_concurrent_kernel                    8 # maximum kernels that can run concurrently on GPU
-gpgpu_cflog_interval                    0 # Interval between each snapshot in control flow logger
-visualizer_enabled               a89ae6a2f6217ce426980a959c61b9bf  /home/pli11/Desktop/re_test/megakv/search/run
Extracting PTX file and ptxas options    1: run.1.sm_70.ptx -arch=sm_70
      0 # Turn on visualizer output (1=On, 0=Off)
-visualizer_outputfile                 NULL # Specifies the output log file for visualizer
-visualizer_zlevel                      6 # Compression level of the visualizer output log (0=no comp, 9=highest)
-gpgpu_stack_size_limit                 1024 # GPU thread stack size
-gpgpu_heap_size_limit              8388608 # GPU malloc heap size 
-gpgpu_runtime_sync_depth_limit                    2 # GPU device runtime synchronize depth
-gpgpu_runtime_pending_launch_count_limit                 2048 # GPU device runtime pending launch count
-trace_enabled                          0 # Turn on traces
-trace_components                    none # comma seperated list of traces to enable. Complete list found in trace_streams.tup. Default none
-trace_sampling_core                    0 # The core which is printed using CORE_DPRINTF. Default 0
-trace_sampling_memory_partition                   -1 # The memory partition which is printed using MEMPART_DPRINTF. Default -1 (i.e. all)
-enable_ptx_file_line_stats                    1 # Turn on PTX source line statistic profiling. (1 = On)
-ptx_line_stats_filename gpgpu_inst_stats.txt # Output file for PTX source line statistics.
-gpgpu_kernel_launch_latency                 5000 # Kernel launch latency in cycles. Default: 0
-gpgpu_cdp_enabled                      0 # Turn on CDP
-gpgpu_TB_launch_latency                    0 # thread block launch latency in cycles. Default: 0
DRAM Timing Options:
nbk                                    16 # number of banks
CCD                                     1 # column to column delay
RRD                                     3 # minimal delay between activation of rows in different banks
RCD                                    12 # row to column delay
RAS                                    28 # time needed to activate row
RP                                     12 # time needed to precharge (deactivate) row
RC                                     40 # row cycle time
CDLR                                    3 # switching from write to read (changes tWTR)
WR                                     10 # last data-in to row precharge
CL                                     12 # CAS latency
WL                                      2 # Write latency
nbkgrp                                  4 # number of bank groups
CCDL                                    2 # column to column delay between accesses to different bank groups
RTPL                                    3 # read to precharge delay between accesses to different bank groups
Total number of memory sub partition = 64
addr_dec_mask[CHIP]  = 0000000000001f00 	high:13 low:8
addr_dec_mask[BK]    = 00000000000e2000 	high:20 low:13
addr_dec_mask[ROW]   = 00000001fff00000 	high:33 low:20
addr_dec_mask[COL]   = 000000000001c0ff 	high:17 low:0
addr_dec_mask[BURST] = 000000000000001f 	high:5 low:0
sub_partition_id_mask = 0000000000002000
GPGPU-Sim uArch: clock freqs: 1132000000.000000:1132000000.000000:1132000000.000000:850000000.000000
GPGPU-Sim uArch: clock periods: 0.00000000088339222615:0.00000000088339222615:0.00000000088339222615:0.00000000117647058824
*** Initializing Memory Statistics ***
GPGPU-Sim uArch: performance model initialization complete.
self exe links to: /home/pli11/Desktop/re_test/megakv/search/run
self exe links to: /home/pli11/Desktop/re_test/megakv/search/run
10.1
GPGPU-Sim PTX: __cudaRegisterFatBinary, fat_cubin_handle = 1, filename=default
self exe links to: /home/pli11/Desktop/re_test/megakv/search/run
Running md5sum using "md5sum /home/pli11/Desktop/re_test/megakv/search/run "
self exe links to: /home/pli11/Desktop/re_test/megakv/search/run
Extracting specific PTX file named run.1.sm_70.ptx 
GPGPU-Sim PTX: __cudaRegisterFunction _Z11hash_searchP7selem_sPjP8bucket_sii : hostFun 0x0x40277b, fat_cubin_handle = 1
GPGPU-Sim PTX: Parsing run.1.sm_70.ptx
GPGPU-Sim PTX: instruction assembly for function '_Z16hash_search_nvmbP7selem_sPjP8bucket_sii'...   done.
GPGPU-Sim PTX: instruction assembly for function '_Z16hash_search_nvmoP7selem_sPjP8bucket_sii'...   done.
GPGPU-Sim PTX: instruction assembly for function '_Z16hash_search_nvmuP7selem_sPjP8bucket_sii'...   done.
GPGPU-Sim PTX: instruction assembly for function '_Z11kernel_l2wbv'...   done.
GPGPU-Sim PTX: instruction assembly for function '_Z15kernel_l2wb_pctv'...   done.
GPGPU-Sim PTX: instruction assembly for function '_Z11hash_searchP7selem_sPjP8bucket_sii'...   done.
GPGPU-Sim PTX: finished parsing EMBEDDED .ptx file run.1.sm_70.ptx
GPGPU-Sim PTX: loading globals with explicit initializers... 
GPGPU-Sim PTX: finished loading globals (0 bytes total).
GPGPU-Sim PTX: loading constants with explicit initializers...  done.
GPGPU-Sim PTX: Loading PTXInfo from run.1.sm_70.ptx
GPGPU-Sim PTX: Kernel '_Z11hash_searchP7selem_sPjP8bucket_sii' : regs=12, lmem=0, smem=0, cmem=384
GPGPU-Sim PTX: Kernel '_Z15kernel_l2wb_pctv' : regs=8, lmem=0, smem=0, cmem=352
GPGPU-Sim PTX: Kernel '_Z11kernel_l2wbv' : regs=8, lmem=0, smem=0, cmem=352
GPGPU-Sim PTX: Kernel '_Z16hash_search_nvmuP7selem_sPjP8bucket_sii' : regs=12, lmem=0, smem=0, cmem=384
GPGPU-Sim PTX: Kernel '_Z16hash_search_nvmoP7selem_sPjP8bucket_sii' : regs=12, lmem=0, smem=0, cmem=384
GPGPU-Sim PTX: Kernel '_Z16hash_search_nvmbP7selem_sPjP8bucket_sii' : regs=16, lmem=0, smem=0, cmem=384
GPGPU-Sim PTX: __cudaRegisterFunction _Z15kernel_l2wb_pctv : hostFun 0x0x402611, fat_cubin_handle = 1
GPGPU-Sim PTX: __cudaRegisterFunction _Z11kernel_l2wbv : hostFun 0x0x402517, fat_cubin_handle = 1
GPGPU-Sim PTX: __cudaRegisterFunction _Z16hash_search_nvmuP7selem_sPjP8bucket_sii : hostFun 0x0x4023ee, fat_cubin_handle = 1
GPGPU-Sim PTX: __cudaRegisterFunction _Z16hash_search_nvmoP7selem_sPjP8bucket_sii : hostFun 0x0x402255, fat_cubin_handle = 1
GPGPU-Sim PTX: __cudaRegisterFunction _Z16hash_search_nvmbP7selem_sPjP8bucket_sii : hostFun 0x0x4020bc, fat_cubin_handle = 1
GPGPU-Sim PTX: cudaStreamCreate
GPGPU-Sim: synchronize waiting for inactive GPU simulation
GPGPU-Sim API: Stream Manager State
GPGPU-Sim API:    stream 1 has 2 operations
GPGPU-Sim API:       0 :  stream operation memcpy host-to-device
GPGPU-Sim API:       1 :  stream operation memcpy device-to-host
GPGPU-Sim: detected inactive GPU simulation thread
GPGPU-Sim: synchronize waiting for inactive GPU simulation
GPGPU-Sim API: Stream Manager State
GPGPU-Sim API:    stream 1 has 1 operations
GPGPU-Sim API:       0 :  stream operation memcpy host-to-device
GPGPU-Sim: detected inactive GPU simulation thread
GPGPU-Sim PTX: Setting up arguments for 8 bytes starting at 0x7ffe146c8578..
GPGPU-Sim PTX: Setting up arguments for 8 bytes starting at 0x7ffe146c8570..
GPGPU-Sim PTX: Setting up arguments for 8 bytes starting at 0x7ffe146c8568..
GPGPU-Sim PTX: Setting up arguments for 4 bytes starting at 0x7ffe146c8564..
GPGPU-Sim PTX: Setting up arguments for 4 bytes starting at 0x7ffe146c8560..

GPGPU-Sim PTX: cudaLaunch for 0x0x4023ee (mode=performance simulation) on stream 1
GPGPU-Sim PTX: finding reconvergence points for '_Z16hash_search_nvmuP7selem_sPjP8bucket_sii'...
GPGPU-Sim PTX: Finding dominators for '_Z16hash_search_nvmuP7selem_sPjP8bucket_sii'...
GPGPU-Sim PTX: Finding immediate dominators for '_Z16hash_search_nvmuP7selem_sPjP8bucket_sii'...
GPGPU-Sim PTX: Finding postdominators for '_Z16hash_search_nvmuP7selem_sPjP8bucket_sii'...
GPGPU-Sim PTX: Finding immediate postdominators for '_Z16hash_search_nvmuP7selem_sPjP8bucket_sii'...
GPGPU-Sim PTX: pre-decoding instructions for '_Z16hash_search_nvmuP7selem_sPjP8bucket_sii'...
GPGPU-Sim PTX: reconvergence points for _Z16hash_search_nvmuP7selem_sPjP8bucket_sii...
GPGPU-Sim PTX:  1 (potential) branch divergence @  PC=0x498 (run.1.sm_70.ptx:246) @%p1 bra BB2_7;
GPGPU-Sim PTX:    immediate post dominator      @  PC=0x6b8 (run.1.sm_70.ptx:341) ret;
GPGPU-Sim PTX:  2 (potential) branch divergence @  PC=0x520 (run.1.sm_70.ptx:266) @%p2 bra BB2_4;
GPGPU-Sim PTX:    immediate post dominator      @  PC=0x5a8 (run.1.sm_70.ptx:294) setp.eq.s32%p3, %r47, %r46;
GPGPU-Sim PTX:  3 (potential) branch divergence @  PC=0x618 (run.1.sm_70.ptx:308) @%p5 bra BB2_6;
GPGPU-Sim PTX:    immediate post dominator      @  PC=0x6a0 (run.1.sm_70.ptx:336) add.s32 %r45, %r45, %r44;
GPGPU-Sim PTX:  4 (potential) branch divergence @  PC=0x6b0 (run.1.sm_70.ptx:338) @%p6 bra BB2_2;
GPGPU-Sim PTX:    immediate post dominator      @  PC=0x6b8 (run.1.sm_70.ptx:341) ret;
GPGPU-Sim PTX: ... end of reconvergence points for _Z16hash_search_nvmuP7selem_sPjP8bucket_sii
GPGPU-Sim PTX: ... done pre-decoding instructions for '_Z16hash_search_nvmuP7selem_sPjP8bucket_sii'.
GPGPU-Sim PTX: pushing kernel '_Z16hash_search_nvmuP7selem_sPjP8bucket_sii' to stream 1, gridDim= (8,1,1) blockDim = (1024,1,1) 
GPGPU-Sim: synchronize waiting for inactive GPU simulation
GPGPU-Sim API: Stream Manager State
GPGPU-Sim API:    stream 1 has 1 operations
GPGPU-Sim API:       0 :  stream operation kernel
GPGPU-Sim uArch: Shader 0 bind to kernel 1 '_Z16hash_search_nvmuP7selem_sPjP8bucket_sii'
GPGPU-Sim uArch: CTA/core = 2, limited by: threads
GPGPU-Sim: Reconfigure L1 cache to 128KB
GPGPU-Sim uArch: Shader 1 bind to kernel 1 '_Z16hash_search_nvmuP7selem_sPjP8bucket_sii'
GPGPU-Sim uArch: Shader 2 bind to kernel 1 '_Z16hash_search_nvmuP7selem_sPjP8bucket_sii'
GPGPU-Sim uArch: Shader 3 bind to kernel 1 '_Z16hash_search_nvmuP7selem_sPjP8bucket_sii'
GPGPU-Sim uArch: Shader 4 bind to kernel 1 '_Z16hash_search_nvmuP7selem_sPjP8bucket_sii'
GPGPU-Sim uArch: Shader 5 bind to kernel 1 '_Z16hash_search_nvmuP7selem_sPjP8bucket_sii'
GPGPU-Sim uArch: Shader 6 bind to kernel 1 '_Z16hash_search_nvmuP7selem_sPjP8bucket_sii'
GPGPU-Sim uArch: Shader 7 bind to kernel 1 '_Z16hash_search_nvmuP7selem_sPjP8bucket_sii'
Destroy streams for kernel 1: size 0
kernel_name = _Z16hash_search_nvmuP7selem_sPjP8bucket_sii 
kernel_launch_uid = 1 
gpu_sim_cycle = 532806
gpu_sim_insn = 19374080
gpu_ipc =      36.3624
gpu_tot_sim_cycle = 532806
gpu_tot_sim_insn = 19374080
gpu_tot_ipc =      36.3624
gpu_tot_issued_cta = 8
gpu_occupancy = 49.5848% 
gpu_tot_occupancy = 49.5848% 
max_total_param_size = 0
gpu_stall_dramfull = 0
gpu_stall_icnt2sh    = 0
partiton_level_parallism =       4.7690
partiton_level_parallism_total  =       4.7690
partiton_level_parallism_util =       4.8645
partiton_level_parallism_util_total  =       4.8645
L2_BW  =     172.7528 GB/Sec
L2_BW_total  =     172.7528 GB/Sec
gpu_total_sim_rate=16774

========= Core cache stats =========
L1I_cache:
	L1I_total_cache_accesses = 0
	L1I_total_cache_misses = 0
	L1I_total_cache_pending_hits = 0
	L1I_total_cache_reservation_fails = 0
L1D_cache:
	L1D_cache_core[0]: Access = 55296, Miss = 52542, Miss_rate = 0.950, Pending_hits = 0, Reservation_fails = 0
	L1D_cache_core[1]: Access = 55296, Miss = 52652, Miss_rate = 0.952, Pending_hits = 0, Reservation_fails = 0
	L1D_cache_core[2]: Access = 55296, Miss = 52614, Miss_rate = 0.951, Pending_hits = 0, Reservation_fails = 0
	L1D_cache_core[3]: Access = 55296, Miss = 52450, Miss_rate = 0.949, Pending_hits = 0, Reservation_fails = 0
	L1D_cache_core[4]: Access = 55296, Miss = 52504, Miss_rate = 0.950, Pending_hits = 0, Reservation_fails = 0
	L1D_cache_core[5]: Access = 55296, Miss = 52641, Miss_rate = 0.952, Pending_hits = 0, Reservation_fails = 0
	L1D_cache_core[6]: Access = 55296, Miss = 52664, Miss_rate = 0.952, Pending_hits = 0, Reservation_fails = 0
	L1D_cache_core[7]: Access = 55296, Miss = 52504, Miss_rate = 0.950, Pending_hits = 0, Reservation_fails = 0
	L1D_cache_core[8]: Access = 0, Miss = 0, Miss_rate = -nan, Pending_hits = 0, Reservation_fails = 0
	L1D_cache_core[9]: Access = 0, Miss = 0, Miss_rate = -nan, Pending_hits = 0, Reservation_fails = 0
	L1D_cache_core[10]: Access = 0, Miss = 0, Miss_rate = -nan, Pending_hits = 0, Reservation_fails = 0
	L1D_cache_core[11]: Access = 0, Miss = 0, Miss_rate = -nan, Pending_hits = 0, Reservation_fails = 0
	L1D_cache_core[12]: Access = 0, Miss = 0, Miss_rate = -nan, Pending_hits = 0, Reservation_fails = 0
	L1D_cache_core[13]: Access = 0, Miss = 0, Miss_rate = -nan, Pending_hits = 0, Reservation_fails = 0
	L1D_cache_core[14]: Access = 0, Miss = 0, Miss_rate = -nan, Pending_hits = 0, Reservation_fails = 0
	L1D_cache_core[15]: Access = 0, Miss = 0, Miss_rate = -nan, Pending_hits = 0, Reservation_fails = 0
	L1D_cache_core[16]: Access = 0, Miss = 0, Miss_rate = -nan, Pending_hits = 0, Reservation_fails = 0
	L1D_cache_core[17]: Access = 0, Miss = 0, Miss_rate = -nan, Pending_hits = 0, Reservation_fails = 0
	L1D_cache_core[18]: Access = 0, Miss = 0, Miss_rate = -nan, Pending_hits = 0, Reservation_fails = 0
	L1D_cache_core[19]: Access = 0, Miss = 0, Miss_rate = -nan, Pending_hits = 0, Reservation_fails = 0
	L1D_cache_core[20]: Access = 0, Miss = 0, Miss_rate = -nan, Pending_hits = 0, Reservation_fails = 0
	L1D_cache_core[21]: Access = 0, Miss = 0, Miss_rate = -nan, Pending_hits = 0, Reservation_fails = 0
	L1D_cache_core[22]: Access = 0, Miss = 0, Miss_rate = -nan, Pending_hits = 0, Reservation_fails = 0
	L1D_cache_core[23]: Access = 0, Miss = 0, Miss_rate = -nan, Pending_hits = 0, Reservation_fails = 0
	L1D_cache_core[24]: Access = 0, Miss = 0, Miss_rate = -nan, Pending_hits = 0, Reservation_fails = 0
	L1D_cache_core[25]: Access = 0, Miss = 0, Miss_rate = -nan, Pending_hits = 0, Reservation_fails = 0
	L1D_cache_core[26]: Access = 0, Miss = 0, Miss_rate = -nan, Pending_hits = 0, Reservation_fails = 0
	L1D_cache_core[27]: Access = 0, Miss = 0, Miss_rate = -nan, Pending_hits = 0, Reservation_fails = 0
	L1D_cache_core[28]: Access = 0, Miss = 0, Miss_rate = -nan, Pending_hits = 0, Reservation_fails = 0
	L1D_cache_core[29]: Access = 0, Miss = 0, Miss_rate = -nan, Pending_hits = 0, Reservation_fails = 0
	L1D_cache_core[30]: Access = 0, Miss = 0, Miss_rate = -nan, Pending_hits = 0, Reservation_fails = 0
	L1D_cache_core[31]: Access = 0, Miss = 0, Miss_rate = -nan, Pending_hits = 0, Reservation_fails = 0
	L1D_cache_core[32]: Access = 0, Miss = 0, Miss_rate = -nan, Pending_hits = 0, Reservation_fails = 0
	L1D_cache_core[33]: Access = 0, Miss = 0, Miss_rate = -nan, Pending_hits = 0, Reservation_fails = 0
	L1D_cache_core[34]: Access = 0, Miss = 0, Miss_rate = -nan, Pending_hits = 0, Reservation_fails = 0
	L1D_cache_core[35]: Access = 0, Miss = 0, Miss_rate = -nan, Pending_hits = 0, Reservation_fails = 0
	L1D_cache_core[36]: Access = 0, Miss = 0, Miss_rate = -nan, Pending_hits = 0, Reservation_fails = 0
	L1D_cache_core[37]: Access = 0, Miss = 0, Miss_rate = -nan, Pending_hits = 0, Reservation_fails = 0
	L1D_cache_core[38]: Access = 0, Miss = 0, Miss_rate = -nan, Pending_hits = 0, Reservation_fails = 0
	L1D_cache_core[39]: Access = 0, Miss = 0, Miss_rate = -nan, Pending_hits = 0, Reservation_fails = 0
	L1D_cache_core[40]: Access = 0, Miss = 0, Miss_rate = -nan, Pending_hits = 0, Reservation_fails = 0
	L1D_cache_core[41]: Access = 0, Miss = 0, Miss_rate = -nan, Pending_hits = 0, Reservation_fails = 0
	L1D_cache_core[42]: Access = 0, Miss = 0, Miss_rate = -nan, Pending_hits = 0, Reservation_fails = 0
	L1D_cache_core[43]: Access = 0, Miss = 0, Miss_rate = -nan, Pending_hits = 0, Reservation_fails = 0
	L1D_cache_core[44]: Access = 0, Miss = 0, Miss_rate = -nan, Pending_hits = 0, Reservation_fails = 0
	L1D_cache_core[45]: Access = 0, Miss = 0, Miss_rate = -nan, Pending_hits = 0, Reservation_fails = 0
	L1D_cache_core[46]: Access = 0, Miss = 0, Miss_rate = -nan, Pending_hits = 0, Reservation_fails = 0
	L1D_cache_core[47]: Access = 0, Miss = 0, Miss_rate = -nan, Pending_hits = 0, Reservation_fails = 0
	L1D_cache_core[48]: Access = 0, Miss = 0, Miss_rate = -nan, Pending_hits = 0, Reservation_fails = 0
	L1D_cache_core[49]: Access = 0, Miss = 0, Miss_rate = -nan, Pending_hits = 0, Reservation_fails = 0
	L1D_cache_core[50]: Access = 0, Miss = 0, Miss_rate = -nan, Pending_hits = 0, Reservation_fails = 0
	L1D_cache_core[51]: Access = 0, Miss = 0, Miss_rate = -nan, Pending_hits = 0, Reservation_fails = 0
	L1D_cache_core[52]: Access = 0, Miss = 0, Miss_rate = -nan, Pending_hits = 0, Reservation_fails = 0
	L1D_cache_core[53]: Access = 0, Miss = 0, Miss_rate = -nan, Pending_hits = 0, Reservation_fails = 0
	L1D_cache_core[54]: Access = 0, Miss = 0, Miss_rate = -nan, Pending_hits = 0, Reservation_fails = 0
	L1D_cache_core[55]: Access = 0, Miss = 0, Miss_rate = -nan, Pending_hits = 0, Reservation_fails = 0
	L1D_cache_core[56]: Access = 0, Miss = 0, Miss_rate = -nan, Pending_hits = 0, Reservation_fails = 0
	L1D_cache_core[57]: Access = 0, Miss = 0, Miss_rate = -nan, Pending_hits = 0, Reservation_fails = 0
	L1D_cache_core[58]: Access = 0, Miss = 0, Miss_rate = -nan, Pending_hits = 0, Reservation_fails = 0
	L1D_cache_core[59]: Access = 0, Miss = 0, Miss_rate = -nan, Pending_hits = 0, Reservation_fails = 0
	L1D_cache_core[60]: Access = 0, Miss = 0, Miss_rate = -nan, Pending_hits = 0, Reservation_fails = 0
	L1D_cache_core[61]: Access = 0, Miss = 0, Miss_rate = -nan, Pending_hits = 0, Reservation_fails = 0
	L1D_cache_core[62]: Access = 0, Miss = 0, Miss_rate = -nan, Pending_hits = 0, Reservation_fails = 0
	L1D_cache_core[63]: Access = 0, Miss = 0, Miss_rate = -nan, Pending_hits = 0, Reservation_fails = 0
	L1D_cache_core[64]: Access = 0, Miss = 0, Miss_rate = -nan, Pending_hits = 0, Reservation_fails = 0
	L1D_cache_core[65]: Access = 0, Miss = 0, Miss_rate = -nan, Pending_hits = 0, Reservation_fails = 0
	L1D_cache_core[66]: Access = 0, Miss = 0, Miss_rate = -nan, Pending_hits = 0, Reservation_fails = 0
	L1D_cache_core[67]: Access = 0, Miss = 0, Miss_rate = -nan, Pending_hits = 0, Reservation_fails = 0
	L1D_cache_core[68]: Access = 0, Miss = 0, Miss_rate = -nan, Pending_hits = 0, Reservation_fails = 0
	L1D_cache_core[69]: Access = 0, Miss = 0, Miss_rate = -nan, Pending_hits = 0, Reservation_fails = 0
	L1D_cache_core[70]: Access = 0, Miss = 0, Miss_rate = -nan, Pending_hits = 0, Reservation_fails = 0
	L1D_cache_core[71]: Access = 0, Miss = 0, Miss_rate = -nan, Pending_hits = 0, Reservation_fails = 0
	L1D_cache_core[72]: Access = 0, Miss = 0, Miss_rate = -nan, Pending_hits = 0, Reservation_fails = 0
	L1D_cache_core[73]: Access = 0, Miss = 0, Miss_rate = -nan, Pending_hits = 0, Reservation_fails = 0
	L1D_cache_core[74]: Access = 0, Miss = 0, Miss_rate = -nan, Pending_hits = 0, Reservation_fails = 0
	L1D_cache_core[75]: Access = 0, Miss = 0, Miss_rate = -nan, Pending_hits = 0, Reservation_fails = 0
	L1D_cache_core[76]: Access = 0, Miss = 0, Miss_rate = -nan, Pending_hits = 0, Reservation_fails = 0
	L1D_cache_core[77]: Access = 0, Miss = 0, Miss_rate = -nan, Pending_hits = 0, Reservation_fails = 0
	L1D_cache_core[78]: Access = 0, Miss = 0, Miss_rate = -nan, Pending_hits = 0, Reservation_fails = 0
	L1D_cache_core[79]: Access = 0, Miss = 0, Miss_rate = -nan, Pending_hits = 0, Reservation_fails = 0
	L1D_total_cache_accesses = 442368
	L1D_total_cache_misses = 420571
	L1D_total_cache_miss_rate = 0.9507
	L1D_total_cache_pending_hits = 0
	L1D_total_cache_reservation_fails = 0
	L1D_cache_data_port_util = 0.005
	L1D_cache_fill_port_util = 0.090
L1C_cache:
	L1C_total_cache_accesses = 0
	L1C_total_cache_misses = 0
	L1C_total_cache_pending_hits = 0
	L1C_total_cache_reservation_fails = 0
L1T_cache:
	L1T_total_cache_accesses = 0
	L1T_total_cache_misses = 0
	L1T_total_cache_pending_hits = 0
	L1T_total_cache_reservation_fails = 0

Total_core_cache_stats:
	Total_core_cache_stats_breakdown[GLOBAL_ACC_R][HIT] = 21797
	Total_core_cache_stats_breakdown[GLOBAL_ACC_R][HIT_RESERVED] = 0
	Total_core_cache_stats_breakdown[GLOBAL_ACC_R][MISS] = 287531
	Total_core_cache_stats_breakdown[GLOBAL_ACC_R][RESERVATION_FAIL] = 0
	Total_core_cache_stats_breakdown[GLOBAL_ACC_R][SECTOR_MISS] = 100272
	Total_core_cache_stats_breakdown[LOCAL_ACC_R][HIT] = 0
	Total_core_cache_stats_breakdown[LOCAL_ACC_R][HIT_RESERVED] = 0
	Total_core_cache_stats_breakdown[LOCAL_ACC_R][MISS] = 0
	Total_core_cache_stats_breakdown[LOCAL_ACC_R][RESERVATION_FAIL] = 0
	Total_core_cache_stats_breakdown[LOCAL_ACC_R][SECTOR_MISS] = 0
	Total_core_cache_stats_breakdown[CONST_ACC_R][HIT] = 0
	Total_core_cache_stats_breakdown[CONST_ACC_R][HIT_RESERVED] = 0
	Total_core_cache_stats_breakdown[CONST_ACC_R][MISS] = 0
	Total_core_cache_stats_breakdown[CONST_ACC_R][RESERVATION_FAIL] = 0
	Total_core_cache_stats_breakdown[CONST_ACC_R][SECTOR_MISS] = 0
	Total_core_cache_stats_breakdown[TEXTURE_ACC_R][HIT] = 0
	Total_core_cache_stats_breakdown[TEXTURE_ACC_R][HIT_RESERVED] = 0
	Total_core_cache_stats_breakdown[TEXTURE_ACC_R][MISS] = 0
	Total_core_cache_stats_breakdown[TEXTURE_ACC_R][RESERVATION_FAIL] = 0
	Total_core_cache_stats_breakdown[TEXTURE_ACC_R][SECTOR_MISS] = 0
	Total_core_cache_stats_breakdown[GLOBAL_ACC_W][HIT] = 0
	Total_core_cache_stats_breakdown[GLOBAL_ACC_W][HIT_RESERVED] = 0
	Total_core_cache_stats_breakdown[GLOBAL_ACC_W][MISS] = 32768
	Total_core_cache_stats_breakdown[GLOBAL_ACC_W][RESERVATION_FAIL] = 0
	Total_core_cache_stats_breakdown[GLOBAL_ACC_W][SECTOR_MISS] = 0
	Total_core_cache_stats_breakdown[LOCAL_ACC_W][HIT] = 0
	Total_core_cache_stats_breakdown[LOCAL_ACC_W][HIT_RESERVED] = 0
	Total_core_cache_stats_breakdown[LOCAL_ACC_W][MISS] = 0
	Total_core_cache_stats_breakdown[LOCAL_ACC_W][RESERVATION_FAIL] = 0
	Total_core_cache_stats_breakdown[LOCAL_ACC_W][SECTOR_MISS] = 0
	Total_core_cache_stats_breakdown[L1_WRBK_ACC][HIT] = 0
	Total_core_cache_stats_breakdown[L1_WRBK_ACC][HIT_RESERVED] = 0
	Total_core_cache_stats_breakdown[L1_WRBK_ACC][MISS] = 0
	Total_core_cache_stats_breakdown[L1_WRBK_ACC][RESERVATION_FAIL] = 0
	Total_core_cache_stats_breakdown[L1_WRBK_ACC][SECTOR_MISS] = 0
	Total_core_cache_stats_breakdown[L2_WRBK_ACC][HIT] = 0
	Total_core_cache_stats_breakdown[L2_WRBK_ACC][HIT_RESERVED] = 0
	Total_core_cache_stats_breakdown[L2_WRBK_ACC][MISS] = 0
	Total_core_cache_stats_breakdown[L2_WRBK_ACC][RESERVATION_FAIL] = 0
	Total_core_cache_stats_breakdown[L2_WRBK_ACC][SECTOR_MISS] = 0
	Total_core_cache_stats_breakdown[INST_ACC_R][HIT] = 0
	Total_core_cache_stats_breakdown[INST_ACC_R][HIT_RESERVED] = 0
	Total_core_cache_stats_breakdown[INST_ACC_R][MISS] = 0
	Total_core_cache_stats_breakdown[INST_ACC_R][RESERVATION_FAIL] = 0
	Total_core_cache_stats_breakdown[INST_ACC_R][SECTOR_MISS] = 0
	Total_core_cache_stats_breakdown[L1_WR_ALLOC_R][HIT] = 0
	Total_core_cache_stats_breakdown[L1_WR_ALLOC_R][HIT_RESERVED] = 0
	Total_core_cache_stats_breakdown[L1_WR_ALLOC_R][MISS] = 0
	Total_core_cache_stats_breakdown[L1_WR_ALLOC_R][RESERVATION_FAIL] = 0
	Total_core_cache_stats_breakdown[L1_WR_ALLOC_R][SECTOR_MISS] = 0
	Total_core_cache_stats_breakdown[L2_WR_ALLOC_R][HIT] = 0
	Total_core_cache_stats_breakdown[L2_WR_ALLOC_R][HIT_RESERVED] = 0
	Total_core_cache_stats_breakdown[L2_WR_ALLOC_R][MISS] = 0
	Total_core_cache_stats_breakdown[L2_WR_ALLOC_R][RESERVATION_FAIL] = 0
	Total_core_cache_stats_breakdown[L2_WR_ALLOC_R][SECTOR_MISS] = 0
	Total_core_cache_stats_breakdown[GLOBAL_ACC_R][TOTAL_ACCESS] = 409600
	Total_core_cache_stats_breakdown[GLOBAL_ACC_W][TOTAL_ACCESS] = 32768

Total_core_cache_fail_stats:
Shader 0 warp_id issue ditsribution:
warp_id:
0, 1, 2, 3, 4, 5, 6, 7, 8, 9, 10, 11, 12, 13, 14, 15, 16, 17, 18, 19, 20, 21, 22, 23, 24, 25, 26, 27, 28, 29, 30, 31, 
distro:
4175, 4175, 4175, 4175, 4175, 4175, 4175, 4175, 4175, 4175, 4175, 4175, 4175, 4175, 4175, 4175, 4175, 4175, 4175, 4175, 4175, 4175, 4175, 4175, 4175, 4175, 4175, 4175, 4175, 4175, 4175, 4175, 
gpgpu_n_tot_thrd_icount = 34201600
gpgpu_n_tot_w_icount = 1068800
gpgpu_n_stall_shd_mem = 2310144
gpgpu_n_mem_read_local = 0
gpgpu_n_mem_write_local = 0
gpgpu_n_mem_read_global = 378272
gpgpu_n_mem_write_global = 2162688
gpgpu_n_mem_texture = 0
gpgpu_n_mem_const = 0
gpgpu_n_load_insn  = 3407872
gpgpu_n_store_insn = 393216
gpgpu_n_shmem_insn = 0
gpgpu_n_sstarr_insn = 0
gpgpu_n_tex_insn = 0
gpgpu_n_const_mem_insn = 0
gpgpu_n_param_mem_insn = 40960
gpgpu_n_shmem_bkconflict = 0
gpgpu_n_cache_bkconflict = 0
gpgpu_n_intrawarp_mshr_merge = 0
gpgpu_n_cmem_portconflict = 0
gpgpu_stall_shd_mem[c_mem][resource_stall] = 0
gpgpu_stall_shd_mem[s_mem][bk_conf] = 0
gpgpu_stall_shd_mem[gl_mem][resource_stall] = 245760
gpgpu_stall_shd_mem[gl_mem][coal_stall] = 2064384
gpgpu_stall_shd_mem[gl_mem][data_port_stall] = 0
gpu_reg_bank_conflict_stalls = 0
Warp Occupancy Distribution:
Stall:2332848	W0_Idle:116183	W0_Scoreboard:13202317	W1:0	W2:0	W3:0	W4:524288	W5:0	W6:0	W7:0	W8:0	W9:0	W10:0	W11:0	W12:0	W13:0	W14:0	W15:0	W16:0	W17:0	W18:0	W19:0	W20:0	W21:0	W22:0	W23:0	W24:0	W25:0	W26:0	W27:0	W28:0	W29:0	W30:0	W31:0	W32:544512
single_issue_nums: WS0:267200	WS1:267200	WS2:267200	WS3:267200	
dual_issue_nums: WS0:0	WS1:0	WS2:0	WS3:0	
traffic_breakdown_coretomem[GLOBAL_ACC_R] = 3026176 {8:378272,}
traffic_breakdown_coretomem[GLOBAL_ACC_W] = 18350080 {8:2129920,40:32768,}
traffic_breakdown_memtocore[GLOBAL_ACC_R] = 15130880 {40:378272,}
traffic_breakdown_memtocore[GLOBAL_ACC_W] = 17301504 {8:2162688,}
maxmflatency = 1433 
max_icnt2mem_latency = 35 
maxmrqlatency = 237 
max_icnt2sh_latency = 611 
averagemflatency = 764 
avg_icnt2mem_latency = 5 
avg_mrq_latency = 2 
avg_icnt2sh_latency = 31 
mrq_lat_table:228845 	48686 	1963 	2333 	5077 	4785 	532 	49 	0 	0 	0 	0 	0 	0 	0 	0 	0 	0 	0 	0 	0 	0 	0 	0 	0 	0 	0 	0 	0 	0 	0 	0 	
dq_lat_table:0 	0 	0 	0 	0 	0 	0 	0 	0 	0 	0 	0 	0 	0 	0 	0 	0 	0 	0 	0 	0 	0 	0 	0 	0 	0 	0 	0 	0 	0 	0 	0 	
mf_lat_table:0 	0 	0 	0 	0 	0 	0 	144478 	30521 	2349011 	16950 	0 	0 	0 	0 	0 	0 	0 	0 	0 	0 	0 	0 	0 	0 	0 	0 	0 	0 	0 	0 	0 	
icnt2mem_lat_table:0 	1916896 	210371 	2653 	411029 	11 	0 	0 	0 	0 	0 	0 	0 	0 	0 	0 	0 	0 	0 	0 	0 	0 	0 	0 	
icnt2sh_lat_table:0 	341809 	289203 	463581 	657212 	498522 	189705 	83421 	17310 	197 	0 	0 	0 	0 	0 	0 	0 	0 	0 	0 	0 	0 	0 	0 	
mf_lat_pw_table:0 	0 	0 	0 	0 	0 	0 	1 	8 	1046 	0 	0 	0 	0 	0 	0 	0 	0 	0 	0 	0 	0 	0 	0 	0 	0 	0 	0 	0 	0 	0 	0 	
maximum concurrent accesses to same row:
dram[0]:         4         4         8         8         8         6         7         6         8         7         8         8         9         6         6         6 
dram[1]:         4         4         8         5         7         8         8         8        11        10        11         9         7         7         8         6 
dram[2]:         4         4         8         8         8         8         8         8        10        13         7         7        10         8        10         6 
dram[3]:         4         4         6         4         4         8         4         4         9         9         8         7         5         5         7         4 
dram[4]:         4         4         4         8         8         8         5         9         8         8         8         9         8         7         8         6 
dram[5]:         4         4         6         5         5         6         7         8         6         8         6         7         5         7         8         6 
dram[6]:         4         4         5         4         6         5         6         8        10         7         8         5        10         6         7         6 
dram[7]:         4         4         4         5         6         8         6         7         9         9         8         8         7         9        10         6 
dram[8]:         4         4         7         5         6         7         6         8         8         8         6         9         8         5         5         6 
dram[9]:         4         4         8         7         7         8         7         8         8         9         9        10         9         8         4         6 
dram[10]:         3         4         8         5         8         5         5         5         5         9         9         7        10        10         7         8 
dram[11]:         4         4         7         8         6         6         7         7         7        12         9         7         9         9         7         9 
dram[12]:         4         4         4         4         6         7         6         5         9         9         7         8         9         4         6         7 
dram[13]:         4         4         5         7         5         6         7         6        10         7         9        11         8         7         6         7 
dram[14]:         4         4         8         7         7         8         6         8        10         8         8         9         7         9         7         8 
dram[15]:         4         4         6         6         8         6         5         5        10        10         6         8         5         8         8         5 
dram[16]:         4         4         6         8         7         7         8         7         7         8         9         7         9         8         7         8 
dram[17]:         4         4         7         8         8         6         8         8        10        11         7         8         5         5         6         6 
dram[18]:         4         4         7         4         6         8         7         6         9        10         6         6         6         5         8         6 
dram[19]:         4         8         4         5         5         5         5         4         8         8         7         7         7         5        10         9 
dram[20]:         4         4         6         7         8         5         7         7         8         8         9         6        11         8         6        15 
dram[21]:         2         4         6         8         8         7         7         6         8         6         9         6         6         8         5         9 
dram[22]:         4         4         4         8         7         7         8        13         7         8         9         7         7         7         7        10 
dram[23]:         4         4         7         8         5         4         7         8         8         8         6        10         8         8         6         7 
dram[24]:         5         4         4         5         5         5         5         5         6         7         7         7         4         4         6         4 
dram[25]:         4         4         7         8         6         8         7         6         7         8         9         9         6         7         8         8 
dram[26]:         4         4         8         7         8         8         7         8        12         7         8         8         9         6         5         7 
dram[27]:         4         4         4         7         8         8         8         9         7         9        10         7         8         9         8         7 
dram[28]:         4         4         8         7         8         8         8         7         8        10         8         9         7         8         6         7 
dram[29]:         4         4         7         8         8         8         8         6         9         8         8         8         7         8         6         5 
dram[30]:         4         4         8         8         8         8         8         8        10         9         8         8         9         7         7         8 
dram[31]:         4         4         8         5         7         7         8         8         9         7         8         8         6         8         8        11 
maximum service time to same row:
dram[0]:     14145     13837     13094     12861     14809     11295     20738     11316     13518     18805     13242     14388      9414      9926     12668     13142 
dram[1]:     11606     14411     10548     11035     14546      8543     12365     10886     10938     11512     12921     10676     11480     12335     18024     12181 
dram[2]:     19754     18520     15422     12890     18046     11782     19000     13840     16490     19176     13992     12055     13323     15823     13754     12076 
dram[3]:     14723     17000     13262     15420     11685     13326     16863     11966     11806     20649     16576      9265     10708     10605     13298     10315 
dram[4]:     10551     18800     12675     11814     14497     11104      9698     16932     13559     11776      9795      8787     22517     13719     11598      8607 
dram[5]:     14657      9879     10253      9005     13375     19669     15166     15570     14716      9595     12326     16317     10295     10509     17859     11312 
dram[6]:     11573     13908     15992     11994      9116     11978     14119     11859     11705     12304      9726     11735     15366     14153     10534     13141 
dram[7]:     14193     13540     18274     12538     11806     13601     14471     29189     13477      9349     12587     13483     19207      8329     10987     13231 
dram[8]:     15724     11271     10917     10275     13076     16064     12283     11150      7911     11054     11689     13460     18757     13158     12846     11415 
dram[9]:     11450      9328     13219      9389     10196     14280     14620     16805     16394     14418     13057     11120      8649      9821      8808     12785 
dram[10]:     14202     13928     22022     13324     17228     11911     12668     22429     13503     11974     11286     15478     15421     15534     13914     12111 
dram[11]:     11802      9554     11868     13323     10260     17015     18164     18089     17725     14454     10909     11673     13993     12193     11701     16008 
dram[12]:     11044     17766     13454     12680     10936      9459     12817     18983     11049     21227     12427     13362     17004     19832     10279     11176 
dram[13]:     13324     11748     18630     13228     11403     10401     15452     12662     12814     12023     10350     13037     13612     12859     15478      8971 
dram[14]:     16242      9100     11475     13334     10659     10076     13946      9709     16047     15298     14909     12993     12583      9333      8790     12626 
dram[15]:     14290     21432     14646     12476     12682     16990     12454     11422     13214     15213      9625     12244     12642     10702     11086     13622 
dram[16]:     16394     14223     10842     11126     16850     14656      9984     15531     13622     11471      9005     11632     13153     15370     12326     14363 
dram[17]:     16830     10634     15905     11690     17120     16265     13227     11027      9261     14954      9507     14123     14245     13194     11449     13006 
dram[18]:     11742      9501     11364     16606     10830     10477     23094     20756     11525     10095     12305     24755     12961     10464     23438     16925 
dram[19]:     19746      9995     18802     13224     10857     14770     13160     16703     17049      9297     12818     13263     10679      9218     17866      9505 
dram[20]:     12119     11917     11134     16083     10649     16640     13275     22158     13027     14395     12135     11620     16000     10279     11328     21970 
dram[21]:     14566     14248     14357     16821     13504     11574     10947     14122      9692     13374     10319      9328     16133     13201     12484     11813 
dram[22]:     12656     19264     14066     15278     10802     14875     12475     17739     15129     13897     17295      9470     10592     10067     12258     13962 
dram[23]:     15383     20646      8604     14245     13250     16141     12070     17325     14113      9922     18455     11263     11440     11689     18256     10223 
dram[24]:     18250      9500     13770     12531      9222     12338     18470     10242     11682     11332     12290     19994     10473     13143     15068     10096 
dram[25]:     16940     13387      8759     19358     15588     13268     13519     16234      9392     11714     10364     12179     13248     21196     15801     14755 
dram[26]:     13971     14504     10596     19665     16416     12342     13888     11120     15332     15025     20118     11874     13321     13282     18595     10614 
dram[27]:     16623     14467     12408     11621     12151     19084     15868     19394     11544     18240     21943     11741     12099     28364     14820     14788 
dram[28]:     10328     12035     19921     12880     15077     14435     13711     11035     12272     14092     14798     12713     16719     15398     11989     12049 
dram[29]:     14334     10805     14347     12255     11650     15780     21847     11463     16351     12660     15359      9378     13677     16487     16921     14033 
dram[30]:     11276     16137     16598     27954     25612     14294     13654     13753     12900     11984      9954     13659     13484     10208     16638     13062 
dram[31]:     13676     13314     13510     10582     15495     17597      8858     11556     13676     10296     13694     12155     11402      9844     14034     12746 
average row accesses per activate:
dram[0]:  1.223744  1.284946  1.323601  1.303167  1.416216  1.251534  1.344111  1.232704  1.301282  1.309302  1.337580  1.335749  1.331313  1.299127  1.319712  1.264887 
dram[1]:  1.220044  1.229665  1.447447  1.326683  1.309013  1.293878  1.394256  1.353774  1.317391  1.342657  1.328639  1.306346  1.260956  1.373464  1.305046  1.296053 
dram[2]:  1.255696  1.285319  1.295238  1.306977  1.390887  1.321586  1.316239  1.340659  1.304545  1.313817  1.259184  1.293362  1.341232  1.307143  1.298283  1.290541 
dram[3]:  1.320856  1.292818  1.243243  1.280193  1.264000  1.326316  1.330296  1.295964  1.317391  1.268132  1.387755  1.234951  1.270510  1.355721  1.259259  1.327982 
dram[4]:  1.361702  1.225806  1.251163  1.307125  1.322196  1.304740  1.283019  1.289100  1.287640  1.305310  1.331887  1.259117  1.305046  1.244576  1.283644  1.271739 
dram[5]:  1.295567  1.312169  1.252101  1.302211  1.323944  1.238477  1.327189  1.368421  1.297052  1.281574  1.268750  1.254144  1.280182  1.223553  1.308190  1.243750 
dram[6]:  1.275000  1.271739  1.317708  1.267241  1.277344  1.347480  1.280335  1.319149  1.380463  1.282051  1.300640  1.261506  1.322997  1.247485  1.318290  1.277890 
dram[7]:  1.287599  1.266667  1.240664  1.238683  1.262525  1.270876  1.334884  1.354839  1.346341  1.358911  1.261663  1.354839  1.377660  1.285992  1.370192  1.287671 
dram[8]:  1.236842  1.251142  1.363881  1.234927  1.279503  1.280397  1.235174  1.418667  1.327586  1.319058  1.288382  1.294931  1.302752  1.330357  1.307175  1.306220 
dram[9]:  1.264198  1.283019  1.401760  1.230469  1.303279  1.385749  1.361257  1.341837  1.371359  1.355353  1.298319  1.278132  1.399491  1.333333  1.303226  1.224074 
dram[10]:  1.192913  1.360434  1.308511  1.250526  1.413265  1.301370  1.288210  1.304933  1.274262  1.361858  1.339806  1.284519  1.370927  1.346062  1.318605  1.288684 
dram[11]:  1.243363  1.230769  1.437500  1.271949  1.324201  1.277652  1.364078  1.322275  1.300459  1.332569  1.298643  1.318182  1.347518  1.318681  1.295858  1.300459 
dram[12]:  1.285000  1.327586  1.296758  1.238512  1.271071  1.294624  1.331808  1.275109  1.290323  1.315451  1.262195  1.324937  1.362500  1.287703  1.352941  1.352657 
dram[13]:  1.310160  1.252900  1.333333  1.357895  1.308036  1.312639  1.330337  1.341067  1.335601  1.332547  1.307054  1.326754  1.496855  1.330296  1.325521  1.337237 
dram[14]:  1.271820  1.270642  1.270531  1.281690  1.288503  1.294382  1.273786  1.280514  1.395408  1.274633  1.306867  1.279412  1.267442  1.286325  1.323529  1.276134 
dram[15]:  1.237020  1.268421  1.259804  1.261468  1.260504  1.277056  1.205374  1.223709  1.309795  1.330233  1.249049  1.391960  1.234234  1.304950  1.305310  1.250923 
dram[16]:  1.274112  1.264000  1.266504  1.276405  1.304348  1.312500  1.390374  1.390836  1.268041  1.277895  1.273101  1.363636  1.302174  1.326034  1.259414  1.347150 
dram[17]:  1.233333  1.258145  1.282609  1.290909  1.302540  1.346633  1.299335  1.345882  1.303609  1.316456  1.266932  1.368293  1.268908  1.238189  1.277083  1.309406 
dram[18]:  1.254321  1.241706  1.288462  1.335294  1.262327  1.287305  1.317536  1.307190  1.275728  1.293307  1.274841  1.302966  1.260960  1.323877  1.346247  1.303167 
dram[19]:  1.269231  1.260090  1.229787  1.278912  1.254438  1.285714  1.271150  1.328671  1.312896  1.321199  1.234714  1.276210  1.226531  1.252918  1.355721  1.262156 
dram[20]:  1.235556  1.363095  1.216535  1.250597  1.305361  1.319635  1.312360  1.298165  1.303097  1.303901  1.271949  1.245098  1.306167  1.348449  1.271930  1.269777 
dram[21]:  1.226852  1.316092  1.276191  1.308235  1.348039  1.300847  1.263374  1.353488  1.282787  1.318565  1.323077  1.296066  1.301703  1.345133  1.211650  1.317352 
dram[22]:  1.286822  1.258537  1.291080  1.367232  1.274510  1.256410  1.289079  1.297539  1.339196  1.416000  1.320611  1.281780  1.241935  1.309524  1.311927  1.362530 
dram[23]:  1.248705  1.228070  1.276786  1.333333  1.276074  1.286996  1.234216  1.371728  1.387654  1.359813  1.320611  1.321199  1.240705  1.361386  1.316754  1.359606 
dram[24]:  1.347181  1.364902  1.210300  1.315789  1.219697  1.247444  1.254005  1.293556  1.337408  1.285149  1.300459  1.311594  1.261506  1.289655  1.315000  1.196296 
dram[25]:  1.248619  1.226966  1.257642  1.376405  1.276507  1.344578  1.387534  1.322115  1.329114  1.329140  1.387909  1.331050  1.230189  1.329949  1.351544  1.281059 
dram[26]:  1.243781  1.309973  1.286713  1.280576  1.327059  1.331719  1.328205  1.343511  1.313253  1.314050  1.335697  1.312057  1.343358  1.315246  1.362069  1.258189 
dram[27]:  1.281013  1.307087  1.318182  1.365239  1.311927  1.274336  1.309824  1.349727  1.330508  1.259635  1.377660  1.296774  1.303571  1.324455  1.263858  1.282851 
dram[28]:  1.230088  1.193396  1.358824  1.304348  1.285714  1.278027  1.303529  1.271150  1.293850  1.348148  1.282353  1.295503  1.297117  1.257669  1.257607  1.323944 
dram[29]:  1.248227  1.211382  1.335065  1.310502  1.267782  1.310345  1.328704  1.317495  1.303653  1.332553  1.232104  1.302376  1.295652  1.273731  1.260394  1.296066 
dram[30]:  1.353261  1.267045  1.307527  1.267974  1.296524  1.283582  1.323591  1.341122  1.350000  1.300830  1.320166  1.298507  1.346253  1.321348  1.362319  1.412869 
dram[31]:  1.299735  1.333333  1.311721  1.223762  1.267368  1.314159  1.292111  1.417526  1.293103  1.303393  1.295597  1.346154  1.324826  1.354120  1.299335  1.402235 
average row locality = 292270/224962 = 1.299197
number of total memory accesses made:
dram[0]:         0         0         0         0         0         0         0         0         0         0         0         0         0         0         0         0 
dram[1]:         0         0         0         0         0         0         0         0         0         0         0         0         0         0         0         0 
dram[2]:         0         0         0         0         0         0         0         0         0         0         0         0         0         0         0         0 
dram[3]:         0         0         0         0         0         0         0         0         0         0         0         0         0         0         0         0 
dram[4]:         0         0         0         0         0         0         0         0         0         0         0         0         0         0         0         0 
dram[5]:         0         0         0         0         0         0         0         0         0         0         0         0         0         0         0         0 
dram[6]:         0         0         0         0         0         0         0         0         0         0         0         0         0         0         0         0 
dram[7]:         0         0         0         0         0         0         0         0         0         0         0         0         0         0         0         0 
dram[8]:         0         0         0         0         0         0         0         0         0         0         0         0         0         0         0         0 
dram[9]:         0         0         0         0         0         0         0         0         0         0         0         0         0         0         0         0 
dram[10]:         0         0         0         0         0         0         0         0         0         0         0         0         0         0         0         0 
dram[11]:         0         0         0         0         0         0         0         0         0         0         0         0         0         0         0         0 
dram[12]:         0         0         0         0         0         0         0         0         0         0         0         0         0         0         0         0 
dram[13]:         0         0         0         0         0         0         0         0         0         0         0         0         0         0         0         0 
dram[14]:         0         0         0         0         0         0         0         0         0         0         0         0         0         0         0         0 
dram[15]:         0         0         0         0         0         0         0         0         0         0         0         0         0         0         0         0 
dram[16]:         0         0         0         0         0         0         0         0         0         0         0         0         0         0         0         0 
dram[17]:         0         0         0         0         0         0         0         0         0         0         0         0         0         0         0         0 
dram[18]:         0         0         0         0         0         0         0         0         0         0         0         0         0         0         0         0 
dram[19]:         0         0         0         0         0         0         0         0         0         0         0         0         0         0         0         0 
dram[20]:         0         0         0         0         0         0         0         0         0         0         0         0         0         0         0         0 
dram[21]:         0         0         0         0         0         0         0         0         0         0         0         0         0         0         0         0 
dram[22]:         0         0         0         0         0         0         0         0         0         0         0         0         0         0         0         0 
dram[23]:         0         0         0         0         0         0         0         0         0         0         0         0         0         0         0         0 
dram[24]:         0         0         0         0         0         0         0         0         0         0         0         0         0         0         0         0 
dram[25]:         0         0         0         0         0         0         0         0         0         0         0         0         0         0         0         0 
dram[26]:         0         0         0         0         0         0         0         0         0         0         0         0         0         0         0         0 
dram[27]:         0         0         0         0         0         0         0         0         0         0         0         0         0         0         0         0 
dram[28]:         0         0         0         0         0         0         0         0         0         0         0         0         0         0         0         0 
dram[29]:         0         0         0         0         0         0         0         0         0         0         0         0         0         0         0         0 
dram[30]:         0         0         0         0         0         0         0         0         0         0         0         0         0         0         0         0 
dram[31]:         0         0         0         0         0         0         0         0         0         0         0         0         0         0         0         0 
total accesses: 0
min_bank_accesses = 0!
min_chip_accesses = 0!
number of total read accesses:
dram[0]:       536       478       544       576       524       612       582       588       522       476       544       470       576       518       482       550 
dram[1]:       560       514       482       532       610       634       534       574       518       488       482       512       558       486       502       522 
dram[2]:       496       464       544       562       580       600       616       610       486       468       526       512       486       472       530       506 
dram[3]:       494       468       552       530       632       504       584       578       516       488       460       548       492       470       512       508 
dram[4]:       512       532       538       532       554       578       612       544       492       510       532       572       490       552       552       520 
dram[5]:       526       496       596       530       564       618       576       468       488       536       528       596       486       538       536       528 
dram[6]:       510       468       506       588       654       508       612       558       452       518       530       522       434       542       488       562 
dram[7]:       488       494       598       602       630       624       574       504       464       464       538       506       444       586       502       498 
dram[8]:       470       548       506       594       618       516       604       532       528       532       534       476       490       522       514       480 
dram[9]:       512       544       478       630       636       564       520       526       476       508       532       514       470       510       540       592 
dram[10]:       606       502       492       594       554       570       590       582       514       466       466       526       464       486       500       492 
dram[11]:       562       576       460       594       580       566       562       558       478       490       486       520       492       520       582       498 
dram[12]:       514       462       520       566       558       602       582       584       554       524       538       444       468       482       462       492 
dram[13]:       490       540       508       516       586       592       592       578       498       474       544       518       402       508       442       504 
dram[14]:       510       554       526       546       594       576       656       598       448       514       520       522       572       524       556       576 
dram[15]:       548       482       514       550       600       590       628       640       478       482       568       466       604       578       518       610 
dram[16]:       502       474       518       568       600       546       520       516       534       522       528       454       524       470       530       446 
dram[17]:       518       502       472       568       564       540       586       572       532       540       552       480       528       554       548       464 
dram[18]:       508       524       536       454       640       578       556       600       572       568       514       530       530       490       486       506 
dram[19]:       462       562       578       564       636       558       586       570       532       534       542       550       524       572       468       524 
dram[20]:       556       458       618       524       560       578       584       566       508       554       508       548       516       492       516       560 
dram[21]:       530       458       536       556       550       614       614       582       544       544       512       538       460       534       558       508 
dram[22]:       498       516       550       484       650       588       602       580       448       444       434       520       544       528       502       492 
dram[23]:       482       490       572       516       624       574       606       524       472       496       436       530       560       478       438       484 
dram[24]:       454       490       564       500       644       610       548       542       462       562       478       460       526       490       460       578 
dram[25]:       452       546       576       490       614       558       512       550       540       542       464       494       582       446       500       562 
dram[26]:       500       486       552       534       564       550       518       528       554       538       480       466       462       434       484       584 
dram[27]:       506       498       580       542       572       576       520       494       532       528       432       516       582       472       500       510 
dram[28]:       556       506       462       540       558       570       554       586       482       456       570       520       512       540       552       496 
dram[29]:       528       596       514       574       606       570       574       610       486       484       484       516       520       504       508       556 
dram[30]:       498       446       608       582       634       602       634       574       452       534       548       520       444       518       490       454 
dram[31]:       490       404       526       618       602       594       606       550       504       556       534       510       494       536       516       430 
total dram reads = 271876
bank skew: 656/402 = 1.63
chip skew: 8856/8234 = 1.08
number of total write accesses:
dram[0]:         0         0         0         0         0         0         0         0       272       260       273       247       211       213       175       180 
dram[1]:         0         0         0         0         0         0         0         0       253       245       269       255       245       238       213       203 
dram[2]:         0         0         0         0         0         0         0         0       219       239       241       229       224       209       197       198 
dram[3]:         0         0         0         0         0         0         0         0       255       228       249       247       219       223       218       213 
dram[4]:         0         0         0         0         0         0         0         0       273       260       280       262       230       230       203       191 
dram[5]:         0         0         0         0         0         0         0         0       252       269       267       254       227       217       180       176 
dram[6]:         0         0         0         0         0         0         0         0       260       253       275       280       223       223       197       202 
dram[7]:         0         0         0         0         0         0         0         0       274       276       251       250       232       221       205       193 
dram[8]:         0         0         0         0         0         0         0         0       269       265       248       226       236       228       194       192 
dram[9]:         0         0         0         0         0         0         0         0       244       252       258       266       224       210       199       208 
dram[10]:         0         0         0         0         0         0         0         0       243       237       232       218       190       190       179       178 
dram[11]:         0         0         0         0         0         0         0         0       227       230       251       240       208       210       203       213 
dram[12]:         0         0         0         0         0         0         0         0       260       255       233       238       206       193       178       180 
dram[13]:         0         0         0         0         0         0         0         0       263       259       251       248       225       212       180       189 
dram[14]:         0         0         0         0         0         0         0         0       232       241       225       234       211       198       196       184 
dram[15]:         0         0         0         0         0         0         0         0       232       244       251       252       194       189       181       184 
dram[16]:         0         0         0         0         0         0         0         0       270       259       264       253       234       229       211       197 
dram[17]:         0         0         0         0         0         0         0         0       261       264       253       246       238       227       193       194 
dram[18]:         0         0         0         0         0         0         0         0       262       264       255       247       234       231       208       195 
dram[19]:         0         0         0         0         0         0         0         0       279       257       268       242       224       227       174       178 
dram[20]:         0         0         0         0         0         0         0         0       264       271       248       237       234       224       196       214 
dram[21]:         0         0         0         0         0         0         0         0       261       277       235       241       238       232       202       202 
dram[22]:         0         0         0         0         0         0         0         0       248       259       229       235       222       215       196       204 
dram[23]:         0         0         0         0         0         0         0         0       259       268       238       231       201       200       177       174 
dram[24]:         0         0         0         0         0         0         0         0       247       263       240       245       212       211       204       194 
dram[25]:         0         0         0         0         0         0         0         0       257       267       230       231       195       230       219       186 
dram[26]:         0         0         0         0         0         0         0         0       251       235       263       253       237       207       204       201 
dram[27]:         0         0         0         0         0         0         0         0       232       246       237       233       217       214       205       191 
dram[28]:         0         0         0         0         0         0         0         0       236       246       254       256       225       243       207       201 
dram[29]:         0         0         0         0         0         0         0         0       254       260       258       262       249       239       201       202 
dram[30]:         0         0         0         0         0         0         0         0       227       231       250       254       227       225       190       211 
dram[31]:         0         0         0         0         0         0         0         0       231       231       262       243       222       212       214       222 
total dram writes = 58704
min_bank_accesses = 0!
chip skew: 1929/1667 = 1.16
[...]
issued_two_Eff = 0.018370 
queue_avg = 0.023168 


dram_util_bins: 0 0 0 0 0 0 0 0 0 0
dram_eff_bins: 0 0 0 0 0 0 0 0 0 0
mrqq: max=6 avg=0.0231682
Memory Partition 28: 
Cache L2_bank_056:
MSHR contents

Cache L2_bank_057:
MSHR contents

In Dram Latency Queue (total = 0): 
DRAM[28]: 16 bks, busW=16 BL=2 CL=12, tRRD=3 tCCD=1, tRCD=12 tRAS=28 tRP=12 tRC=40
n_cmd=400075 n_nop=376105 n_act=7076 n_pre=7060 n_ref_event=0 n_req=9089 n_rd=8460 n_rd_L2_A=0 n_write=0 n_wr_bk=1868 bw_util=0.02582
n_activity=232532 dram_eff=0.04442
bk0: 556a 388498i bk1: 506a 389194i bk2: 462a 391462i bk3: 540a 389639i bk4: 558a 389039i bk5: 570a 388697i bk6: 554a 389089i bk7: 586a 388321i bk8: 482a 388458i bk9: 456a 389230i bk10: 570a 386684i bk11: 520a 387476i bk12: 512a 388175i bk13: 540a 387203i bk14: 552a 387454i bk15: 496a 389082i 

------------------------------------------------------------------------

Row_Buffer_Locality = 0.221477
Row_Buffer_Locality_read = 0.200591
Row_Buffer_Locality_write = 0.502385
Bank_Level_Parallism = 1.353118
Bank_Level_Parallism_Col = 1.179286
Bank_Level_Parallism_Ready = 1.014330
write_to_read_ratio_blp_rw_average = 0.080301
GrpLevelPara = 1.135396 

BW Util details:
bwutil = 0.025815 
total_CMD = 400075 
util_bw = 10328 
Wasted_Col = 71890 
Wasted_Row = 60111 
Idle = 257746 

BW Util Bottlenecks: 
RCDc_limit = 78374 
RCDWRc_limit = 2731 
WTRc_limit = 1393 
RTWc_limit = 2061 
CCDLc_limit = 2065 
rwq = 0 
CCDLc_limit_alone = 1899 
WTRc_limit_alone = 1267 
RTWc_limit_alone = 2021 

Commands details: 
total_CMD = 400075 
n_nop = 376105 
Read = 8460 
Write = 0 
L2_Alloc = 0 
L2_WB = 1868 
n_act = 7076 
n_pre = 7060 
n_ref = 0 
n_req = 9089 
total_req = 10328 

Dual Bus Interface Util: 
issued_total_row = 14136 
issued_total_col = 10328 
Row_Bus_Util =  0.035333 
CoL_Bus_Util = 0.025815 
Either_Row_CoL_Bus_Util = 0.059914 
Issued_on_Two_Bus_Simul_Util = 0.001235 
issued_two_Eff = 0.020609 
queue_avg = 0.019914 


dram_util_bins: 0 0 0 0 0 0 0 0 0 0
dram_eff_bins: 0 0 0 0 0 0 0 0 0 0
mrqq: max=7 avg=0.0199138
Memory Partition 29: 
Cache L2_bank_058:
MSHR contents

Cache L2_bank_059:
MSHR contents

In Dram Latency Queue (total = 0): 
DRAM[29]: 16 bks, busW=16 BL=2 CL=12, tRRD=3 tCCD=1, tRCD=12 tRAS=28 tRP=12 tRC=40
n_cmd=400075 n_nop=375677 n_act=7188 n_pre=7172 n_ref_event=0 n_req=9258 n_rd=8630 n_rd_L2_A=0 n_write=0 n_wr_bk=1925 bw_util=0.02638
n_activity=233614 dram_eff=0.04518
bk0: 528a 389507i bk1: 596a 387441i bk2: 514a 390118i bk3: 574a 388825i bk4: 606a 387801i bk5: 570a 388816i bk6: 574a 389143i bk7: 610a 388083i bk8: 486a 388373i bk9: 484a 388686i bk10: 484a 387668i bk11: 516a 387579i bk12: 520a 388050i bk13: 504a 388066i bk14: 508a 388188i bk15: 556a 387449i 

------------------------------------------------------------------------

Row_Buffer_Locality = 0.223590
Row_Buffer_Locality_read = 0.202781
Row_Buffer_Locality_write = 0.509554
Bank_Level_Parallism = 1.369028
Bank_Level_Parallism_Col = 1.181439
Bank_Level_Parallism_Ready = 1.013169
write_to_read_ratio_blp_rw_average = 0.080998
GrpLevelPara = 1.139366 

BW Util details:
bwutil = 0.026383 
total_CMD = 400075 
util_bw = 10555 
Wasted_Col = 73120 
Wasted_Row = 59978 
Idle = 256422 

BW Util Bottlenecks: 
RCDc_limit = 79574 
RCDWRc_limit = 2678 
WTRc_limit = 1689 
RTWc_limit = 2234 
CCDLc_limit = 2155 
rwq = 0 
CCDLc_limit_alone = 1959 
WTRc_limit_alone = 1536 
RTWc_limit_alone = 2191 

Commands details: 
total_CMD = 400075 
n_nop = 375677 
Read = 8630 
Write = 0 
L2_Alloc = 0 
L2_WB = 1925 
n_act = 7188 
n_pre = 7172 
n_ref = 0 
n_req = 9258 
total_req = 10555 

Dual Bus Interface Util: 
issued_total_row = 14360 
issued_total_col = 10555 
Row_Bus_Util =  0.035893 
CoL_Bus_Util = 0.026383 
Either_Row_CoL_Bus_Util = 0.060984 
Issued_on_Two_Bus_Simul_Util = 0.001292 
issued_two_Eff = 0.021190 
queue_avg = 0.021823 


dram_util_bins: 0 0 0 0 0 0 0 0 0 0
dram_eff_bins: 0 0 0 0 0 0 0 0 0 0
mrqq: max=7 avg=0.0218234
Memory Partition 30: 
Cache L2_bank_060:
MSHR contents

Cache L2_bank_061:
MSHR contents

In Dram Latency Queue (total = 0): 
DRAM[30]: 16 bks, busW=16 BL=2 CL=12, tRRD=3 tCCD=1, tRCD=12 tRAS=28 tRP=12 tRC=40
n_cmd=400075 n_nop=376251 n_act=6960 n_pre=6944 n_ref_event=0 n_req=9189 n_rd=8538 n_rd_L2_A=0 n_write=0 n_wr_bk=1815 bw_util=0.02588
n_activity=233812 dram_eff=0.04428
bk0: 498a 390895i bk1: 446a 391079i bk2: 608a 388165i bk3: 582a 388325i bk4: 634a 387565i bk5: 602a 387977i bk6: 634a 387777i bk7: 574a 389161i bk8: 452a 389602i bk9: 534a 387260i bk10: 548a 387463i bk11: 520a 387823i bk12: 444a 389931i bk13: 518a 388270i bk14: 490a 389225i bk15: 454a 390364i 

------------------------------------------------------------------------

Row_Buffer_Locality = 0.242573
Row_Buffer_Locality_read = 0.217264
Row_Buffer_Locality_write = 0.574501
Bank_Level_Parallism = 1.331911
Bank_Level_Parallism_Col = 1.166257
Bank_Level_Parallism_Ready = 1.014006
write_to_read_ratio_blp_rw_average = 0.073855
GrpLevelPara = 1.128676 

BW Util details:
bwutil = 0.025878 
total_CMD = 400075 
util_bw = 10353 
Wasted_Col = 71725 
Wasted_Row = 60204 
Idle = 257793 

BW Util Bottlenecks: 
RCDc_limit = 77627 
RCDWRc_limit = 2431 
WTRc_limit = 1434 
RTWc_limit = 1726 
CCDLc_limit = 2009 
rwq = 0 
CCDLc_limit_alone = 1845 
WTRc_limit_alone = 1304 
RTWc_limit_alone = 1692 

Commands details: 
total_CMD = 400075 
n_nop = 376251 
Read = 8538 
Write = 0 
L2_Alloc = 0 
L2_WB = 1815 
n_act = 6960 
n_pre = 6944 
n_ref = 0 
n_req = 9189 
total_req = 10353 

Dual Bus Interface Util: 
issued_total_row = 13904 
issued_total_col = 10353 
Row_Bus_Util =  0.034753 
CoL_Bus_Util = 0.025878 
Either_Row_CoL_Bus_Util = 0.059549 
Issued_on_Two_Bus_Simul_Util = 0.001082 
issued_two_Eff = 0.018175 
queue_avg = 0.025270 


dram_util_bins: 0 0 0 0 0 0 0 0 0 0
dram_eff_bins: 0 0 0 0 0 0 0 0 0 0
mrqq: max=7 avg=0.0252703
Memory Partition 31: 
Cache L2_bank_062:
MSHR contents

Cache L2_bank_063:
MSHR contents

In Dram Latency Queue (total = 0): 
DRAM[31]: 16 bks, busW=16 BL=2 CL=12, tRRD=3 tCCD=1, tRCD=12 tRAS=28 tRP=12 tRC=40
n_cmd=400075 n_nop=376368 n_act=6943 n_pre=6927 n_ref_event=0 n_req=9123 n_rd=8470 n_rd_L2_A=0 n_write=0 n_wr_bk=1837 bw_util=0.02576
n_activity=232191 dram_eff=0.04439
bk0: 490a 390458i bk1: 404a 392350i bk2: 526a 389914i bk3: 618a 387301i bk4: 602a 388010i bk5: 594a 388662i bk6: 606a 387957i bk7: 550a 390198i bk8: 504a 387883i bk9: 556a 386785i bk10: 534a 387158i bk11: 510a 388329i bk12: 494a 388847i bk13: 536a 388232i bk14: 516a 388207i bk15: 430a 390584i 

------------------------------------------------------------------------

Row_Buffer_Locality = 0.238956
Row_Buffer_Locality_read = 0.216175
Row_Buffer_Locality_write = 0.534456
Bank_Level_Parallism = 1.347358
Bank_Level_Parallism_Col = 1.177792
Bank_Level_Parallism_Ready = 1.015523
write_to_read_ratio_blp_rw_average = 0.080696
GrpLevelPara = 1.137813 

BW Util details:
bwutil = 0.025763 
total_CMD = 400075 
util_bw = 10307 
Wasted_Col = 70778 
Wasted_Row = 59522 
Idle = 259468 

BW Util Bottlenecks: 
RCDc_limit = 76922 
RCDWRc_limit = 2653 
WTRc_limit = 1323 
RTWc_limit = 2023 
CCDLc_limit = 1975 
rwq = 0 
CCDLc_limit_alone = 1851 
WTRc_limit_alone = 1246 
RTWc_limit_alone = 1976 

Commands details: 
total_CMD = 400075 
n_nop = 376368 
Read = 8470 
Write = 0 
L2_Alloc = 0 
L2_WB = 1837 
n_act = 6943 
n_pre = 6927 
n_ref = 0 
n_req = 9123 
total_req = 10307 

Dual Bus Interface Util: 
issued_total_row = 13870 
issued_total_col = 10307 
Row_Bus_Util =  0.034669 
CoL_Bus_Util = 0.025763 
Either_Row_CoL_Bus_Util = 0.059256 
Issued_on_Two_Bus_Simul_Util = 0.001175 
issued_two_Eff = 0.019825 
queue_avg = 0.020479 


dram_util_bins: 0 0 0 0 0 0 0 0 0 0
dram_eff_bins: 0 0 0 0 0 0 0 0 0 0
mrqq: max=7 avg=0.0204787

========= L2 cache stats =========
L2_cache_bank[0]: Access = 7007, Miss = 4803, Miss_rate = 0.685, Pending_hits = 0, Reservation_fails = 0
L2_cache_bank[1]: Access = 6971, Miss = 4767, Miss_rate = 0.684, Pending_hits = 0, Reservation_fails = 0
L2_cache_bank[2]: Access = 6918, Miss = 4752, Miss_rate = 0.687, Pending_hits = 0, Reservation_fails = 0
L2_cache_bank[3]: Access = 7011, Miss = 4761, Miss_rate = 0.679, Pending_hits = 0, Reservation_fails = 0
L2_cache_bank[4]: Access = 6888, Miss = 4746, Miss_rate = 0.689, Pending_hits = 0, Reservation_fails = 0
L2_cache_bank[5]: Access = 6808, Miss = 4723, Miss_rate = 0.694, Pending_hits = 0, Reservation_fails = 0
L2_cache_bank[6]: Access = 6950, Miss = 4720, Miss_rate = 0.679, Pending_hits = 0, Reservation_fails = 0
L2_cache_bank[7]: Access = 6751, Miss = 4602, Miss_rate = 0.682, Pending_hits = 0, Reservation_fails = 0
L2_cache_bank[8]: Access = 7001, Miss = 4773, Miss_rate = 0.682, Pending_hits = 0, Reservation_fails = 0
L2_cache_bank[9]: Access = 7070, Miss = 4857, Miss_rate = 0.687, Pending_hits = 0, Reservation_fails = 0
L2_cache_bank[10]: Access = 7018, Miss = 4791, Miss_rate = 0.683, Pending_hits = 0, Reservation_fails = 0
L2_cache_bank[11]: Access = 6986, Miss = 4793, Miss_rate = 0.686, Pending_hits = 0, Reservation_fails = 0
L2_cache_bank[12]: Access = 6880, Miss = 4686, Miss_rate = 0.681, Pending_hits = 0, Reservation_fails = 0
L2_cache_bank[13]: Access = 6925, Miss = 4789, Miss_rate = 0.692, Pending_hits = 0, Reservation_fails = 0
L2_cache_bank[14]: Access = 6940, Miss = 4727, Miss_rate = 0.681, Pending_hits = 0, Reservation_fails = 0
L2_cache_bank[15]: Access = 7012, Miss = 4752, Miss_rate = 0.678, Pending_hits = 0, Reservation_fails = 0
L2_cache_bank[16]: Access = 6977, Miss = 4742, Miss_rate = 0.680, Pending_hits = 0, Reservation_fails = 0
L2_cache_bank[17]: Access = 6903, Miss = 4688, Miss_rate = 0.679, Pending_hits = 0, Reservation_fails = 0
L2_cache_bank[18]: Access = 6850, Miss = 4686, Miss_rate = 0.684, Pending_hits = 0, Reservation_fails = 0
L2_cache_bank[19]: Access = 7170, Miss = 4883, Miss_rate = 0.681, Pending_hits = 0, Reservation_fails = 0
L2_cache_bank[20]: Access = 6844, Miss = 4705, Miss_rate = 0.687, Pending_hits = 0, Reservation_fails = 0
L2_cache_bank[21]: Access = 6955, Miss = 4686, Miss_rate = 0.674, Pending_hits = 0, Reservation_fails = 0
L2_cache_bank[22]: Access = 6816, Miss = 4726, Miss_rate = 0.693, Pending_hits = 0, Reservation_fails = 0
L2_cache_bank[23]: Access = 6947, Miss = 4834, Miss_rate = 0.696, Pending_hits = 0, Reservation_fails = 0
L2_cache_bank[24]: Access = 6909, Miss = 4699, Miss_rate = 0.680, Pending_hits = 0, Reservation_fails = 0
L2_cache_bank[25]: Access = 6874, Miss = 4693, Miss_rate = 0.683, Pending_hits = 0, Reservation_fails = 0
L2_cache_bank[26]: Access = 6735, Miss = 4549, Miss_rate = 0.675, Pending_hits = 0, Reservation_fails = 0
L2_cache_bank[27]: Access = 6871, Miss = 4761, Miss_rate = 0.693, Pending_hits = 0, Reservation_fails = 0
L2_cache_bank[28]: Access = 7043, Miss = 4902, Miss_rate = 0.696, Pending_hits = 0, Reservation_fails = 0
L2_cache_bank[29]: Access = 7071, Miss = 4966, Miss_rate = 0.702, Pending_hits = 0, Reservation_fails = 0
L2_cache_bank[30]: Access = 7187, Miss = 4997, Miss_rate = 0.695, Pending_hits = 0, Reservation_fails = 0
L2_cache_bank[31]: Access = 7057, Miss = 4931, Miss_rate = 0.699, Pending_hits = 0, Reservation_fails = 0
L2_cache_bank[32]: Access = 6968, Miss = 4736, Miss_rate = 0.680, Pending_hits = 0, Reservation_fails = 0
L2_cache_bank[33]: Access = 6667, Miss = 4466, Miss_rate = 0.670, Pending_hits = 0, Reservation_fails = 0
L2_cache_bank[34]: Access = 7029, Miss = 4777, Miss_rate = 0.680, Pending_hits = 0, Reservation_fails = 0
L2_cache_bank[35]: Access = 6890, Miss = 4700, Miss_rate = 0.682, Pending_hits = 0, Reservation_fails = 0
L2_cache_bank[36]: Access = 7032, Miss = 4815, Miss_rate = 0.685, Pending_hits = 0, Reservation_fails = 0
L2_cache_bank[37]: Access = 6904, Miss = 4756, Miss_rate = 0.689, Pending_hits = 0, Reservation_fails = 0
L2_cache_bank[38]: Access = 6977, Miss = 4833, Miss_rate = 0.693, Pending_hits = 0, Reservation_fails = 0
L2_cache_bank[39]: Access = 7157, Miss = 4940, Miss_rate = 0.690, Pending_hits = 0, Reservation_fails = 0
L2_cache_bank[40]: Access = 7099, Miss = 4879, Miss_rate = 0.687, Pending_hits = 0, Reservation_fails = 0
L2_cache_bank[41]: Access = 6982, Miss = 4779, Miss_rate = 0.684, Pending_hits = 0, Reservation_fails = 0
L2_cache_bank[42]: Access = 7011, Miss = 4804, Miss_rate = 0.685, Pending_hits = 0, Reservation_fails = 0
L2_cache_bank[43]: Access = 7024, Miss = 4852, Miss_rate = 0.691, Pending_hits = 0, Reservation_fails = 0
L2_cache_bank[44]: Access = 6905, Miss = 4703, Miss_rate = 0.681, Pending_hits = 0, Reservation_fails = 0
L2_cache_bank[45]: Access = 6796, Miss = 4660, Miss_rate = 0.686, Pending_hits = 0, Reservation_fails = 0
L2_cache_bank[46]: Access = 6897, Miss = 4698, Miss_rate = 0.681, Pending_hits = 0, Reservation_fails = 0
L2_cache_bank[47]: Access = 6756, Miss = 4599, Miss_rate = 0.681, Pending_hits = 0, Reservation_fails = 0
L2_cache_bank[48]: Access = 6847, Miss = 4642, Miss_rate = 0.678, Pending_hits = 0, Reservation_fails = 0
L2_cache_bank[49]: Access = 6998, Miss = 4701, Miss_rate = 0.672, Pending_hits = 0, Reservation_fails = 0
L2_cache_bank[50]: Access = 6972, Miss = 4741, Miss_rate = 0.680, Pending_hits = 0, Reservation_fails = 0
L2_cache_bank[51]: Access = 6877, Miss = 4674, Miss_rate = 0.680, Pending_hits = 0, Reservation_fails = 0
L2_cache_bank[52]: Access = 6786, Miss = 4533, Miss_rate = 0.668, Pending_hits = 0, Reservation_fails = 0
L2_cache_bank[53]: Access = 6782, Miss = 4612, Miss_rate = 0.680, Pending_hits = 0, Reservation_fails = 0
L2_cache_bank[54]: Access = 6826, Miss = 4764, Miss_rate = 0.698, Pending_hits = 0, Reservation_fails = 0
L2_cache_bank[55]: Access = 6745, Miss = 4626, Miss_rate = 0.686, Pending_hits = 0, Reservation_fails = 0
L2_cache_bank[56]: Access = 6898, Miss = 4768, Miss_rate = 0.691, Pending_hits = 0, Reservation_fails = 0
L2_cache_bank[57]: Access = 6899, Miss = 4721, Miss_rate = 0.684, Pending_hits = 0, Reservation_fails = 0
L2_cache_bank[58]: Access = 6906, Miss = 4738, Miss_rate = 0.686, Pending_hits = 0, Reservation_fails = 0
L2_cache_bank[59]: Access = 7161, Miss = 4924, Miss_rate = 0.688, Pending_hits = 0, Reservation_fails = 0
L2_cache_bank[60]: Access = 6975, Miss = 4787, Miss_rate = 0.686, Pending_hits = 0, Reservation_fails = 0
L2_cache_bank[61]: Access = 6867, Miss = 4750, Miss_rate = 0.692, Pending_hits = 0, Reservation_fails = 0
L2_cache_bank[62]: Access = 6962, Miss = 4776, Miss_rate = 0.686, Pending_hits = 0, Reservation_fails = 0
L2_cache_bank[63]: Access = 6868, Miss = 4708, Miss_rate = 0.685, Pending_hits = 0, Reservation_fails = 0
L2_total_cache_accesses = 443808
L2_total_cache_misses = 303952
L2_total_cache_miss_rate = 0.6849
L2_total_cache_pending_hits = 0
L2_total_cache_reservation_fails = 0
L2_total_cache_breakdown:
	L2_cache_stats_breakdown[GLOBAL_ACC_R][HIT] = 106396
	L2_cache_stats_breakdown[GLOBAL_ACC_R][HIT_RESERVED] = 0
	L2_cache_stats_breakdown[GLOBAL_ACC_R][MISS] = 124907
	L2_cache_stats_breakdown[GLOBAL_ACC_R][RESERVATION_FAIL] = 0
	L2_cache_stats_breakdown[GLOBAL_ACC_R][SECTOR_MISS] = 146969
	L2_cache_stats_breakdown[LOCAL_ACC_R][HIT] = 0
	L2_cache_stats_breakdown[LOCAL_ACC_R][HIT_RESERVED] = 0
	L2_cache_stats_breakdown[LOCAL_ACC_R][MISS] = 0
	L2_cache_stats_breakdown[LOCAL_ACC_R][RESERVATION_FAIL] = 0
	L2_cache_stats_breakdown[LOCAL_ACC_R][SECTOR_MISS] = 0
	L2_cache_stats_breakdown[CONST_ACC_R][HIT] = 0
	L2_cache_stats_breakdown[CONST_ACC_R][HIT_RESERVED] = 0
	L2_cache_stats_breakdown[CONST_ACC_R][MISS] = 0
	L2_cache_stats_breakdown[CONST_ACC_R][RESERVATION_FAIL] = 0
	L2_cache_stats_breakdown[CONST_ACC_R][SECTOR_MISS] = 0
	L2_cache_stats_breakdown[TEXTURE_ACC_R][HIT] = 0
	L2_cache_stats_breakdown[TEXTURE_ACC_R][HIT_RESERVED] = 0
	L2_cache_stats_breakdown[TEXTURE_ACC_R][MISS] = 0
	L2_cache_stats_breakdown[TEXTURE_ACC_R][RESERVATION_FAIL] = 0
	L2_cache_stats_breakdown[TEXTURE_ACC_R][SECTOR_MISS] = 0
	L2_cache_stats_breakdown[GLOBAL_ACC_W][HIT] = 33460
	L2_cache_stats_breakdown[GLOBAL_ACC_W][HIT_RESERVED] = 0
	L2_cache_stats_breakdown[GLOBAL_ACC_W][MISS] = 4917
	L2_cache_stats_breakdown[GLOBAL_ACC_W][RESERVATION_FAIL] = 0
	L2_cache_stats_breakdown[GLOBAL_ACC_W][SECTOR_MISS] = 27159
	L2_cache_stats_breakdown[LOCAL_ACC_W][HIT] = 0
	L2_cache_stats_breakdown[LOCAL_ACC_W][HIT_RESERVED] = 0
	L2_cache_stats_breakdown[LOCAL_ACC_W][MISS] = 0
	L2_cache_stats_breakdown[LOCAL_ACC_W][RESERVATION_FAIL] = 0
	L2_cache_stats_breakdown[LOCAL_ACC_W][SECTOR_MISS] = 0
	L2_cache_stats_breakdown[L1_WRBK_ACC][HIT] = 0
	L2_cache_stats_breakdown[L1_WRBK_ACC][HIT_RESERVED] = 0
	L2_cache_stats_breakdown[L1_WRBK_ACC][MISS] = 0
	L2_cache_stats_breakdown[L1_WRBK_ACC][RESERVATION_FAIL] = 0
	L2_cache_stats_breakdown[L1_WRBK_ACC][SECTOR_MISS] = 0
	L2_cache_stats_breakdown[L2_WRBK_ACC][HIT] = 0
	L2_cache_stats_breakdown[L2_WRBK_ACC][HIT_RESERVED] = 0
	L2_cache_stats_breakdown[L2_WRBK_ACC][MISS] = 0
	L2_cache_stats_breakdown[L2_WRBK_ACC][RESERVATION_FAIL] = 0
	L2_cache_stats_breakdown[L2_WRBK_ACC][SECTOR_MISS] = 0
	L2_cache_stats_breakdown[INST_ACC_R][HIT] = 0
	L2_cache_stats_breakdown[INST_ACC_R][HIT_RESERVED] = 0
	L2_cache_stats_breakdown[INST_ACC_R][MISS] = 0
	L2_cache_stats_breakdown[INST_ACC_R][RESERVATION_FAIL] = 0
	L2_cache_stats_breakdown[INST_ACC_R][SECTOR_MISS] = 0
	L2_cache_stats_breakdown[L1_WR_ALLOC_R][HIT] = 0
	L2_cache_stats_breakdown[L1_WR_ALLOC_R][HIT_RESERVED] = 0
	L2_cache_stats_breakdown[L1_WR_ALLOC_R][MISS] = 0
	L2_cache_stats_breakdown[L1_WR_ALLOC_R][RESERVATION_FAIL] = 0
	L2_cache_stats_breakdown[L1_WR_ALLOC_R][SECTOR_MISS] = 0
	L2_cache_stats_breakdown[L2_WR_ALLOC_R][HIT] = 0
	L2_cache_stats_breakdown[L2_WR_ALLOC_R][HIT_RESERVED] = 0
	L2_cache_stats_breakdown[L2_WR_ALLOC_R][MISS] = 0
	L2_cache_stats_breakdown[L2_WR_ALLOC_R][RESERVATION_FAIL] = 0
	L2_cache_stats_breakdown[L2_WR_ALLOC_R][SECTOR_MISS] = 0
	L2_cache_stats_breakdown[GLOBAL_ACC_R][TOTAL_ACCESS] = 378272
	L2_cache_stats_breakdown[GLOBAL_ACC_W][TOTAL_ACCESS] = 65536
L2_total_cache_reservation_fail_breakdown:
L2_cache_data_port_util = 0.005
L2_cache_fill_port_util = 0.008

icnt_total_pkts_mem_to_simt=2540960
icnt_total_pkts_simt_to_mem=2540960
LD_mem_lat_dist  0 0 0 0 0 0 0 0 0 0 0 0 0 0 0 0 0 0 0 0 0 0 0 0 0 0 0
ST_mem_lat_dist  0 0 0 0 0 0 0 0 0 0 0 0 0 0 0 0 0 0 0 0 0 0 0 0 0 0 0
----------------------------Interconnect-DETAILS--------------------------------
Req_Network_injected_packets_num = 2540960
Req_Network_cycles = 532806
Req_Network_injected_packets_per_cycle =       4.7690 
Req_Network_conflicts_per_cycle =       0.0510
Req_Network_conflicts_per_cycle_util =       0.0520
Req_Bank_Level_Parallism =       4.8645
Req_Network_in_buffer_full_per_cycle =       0.0000
Req_Network_in_buffer_avg_util =       0.0247
Req_Network_out_buffer_full_per_cycle =       0.0000
Req_Network_out_buffer_avg_util =       0.0745

Reply_Network_injected_packets_num = 2540960
Reply_Network_cycles = 532806
Reply_Network_injected_packets_per_cycle =        4.7690
Reply_Network_conflicts_per_cycle =       37.6038
Reply_Network_conflicts_per_cycle_util =      38.3696
Reply_Bank_Level_Parallism =       4.8661
Reply_Network_in_buffer_full_per_cycle =       0.0000
Reply_Network_in_buffer_avg_util =       2.2328
Reply_Network_out_buffer_full_per_cycle =       0.0000
Reply_Network_out_buffer_avg_util =       0.0596
----------------------------END-of-Interconnect-DETAILS-------------------------


gpgpu_simulation_time = 0 days, 0 hrs, 19 min, 15 sec (1155 sec)
gpgpu_simulation_rate = 16774 (inst/sec)
gpgpu_simulation_rate = 461 (cycle/sec)
gpgpu_silicon_slowdown = 2455531x
GPGPU-Sim: detected inactive GPU simulation thread

total_us: 1 laps, 1097103205 us


gen_hists: 1 laps, 1097103205.000000 us/lap, 137137900.625000 us/cta

GPGPU-Sim: synchronize waiting for inactive GPU simulation
GPGPU-Sim API: Stream Manager State
GPGPU-Sim API:    stream 1 has 1 operations
GPGPU-Sim API:       0 :  stream operation memcpy device-to-host
GPGPU-Sim: detected inactive GPU simulation thread
GPGPU-Sim: *** exit detected ***
