

        *** GPGPU-Sim Simulator Version 4.0.0  [build gpgpu-sim_git-commit-_modified_0.0] ***


GPGPU-Sim PTX: simulation mode 0 (can change with PTX_SIM_MODE_FUNC environment variable:
               1=functional simulation only, 0=detailed performance simulator)
GPGPU-Sim PTX: overriding embedded ptx with ptx file (PTX_SIM_USE_PTX_FILE is set)
GPGPU-Sim: Configuration options:

-save_embedded_ptx                      0 # saves ptx files embedded in binary as <n>.ptx
-keep                                   0 # keep intermediate files created by GPGPU-Sim when interfacing with external programs
-gpgpu_ptx_save_converted_ptxplus                    0 # Saved converted ptxplus to a file
-gpgpu_occupancy_sm_number                   70 # The SM number to pass to ptxas when getting register usage for computing GPU occupancy. This parameter is required in the config.
-ptx_opcode_latency_int      4,13,4,5,145,21 # Opcode latencies for integers <ADD,MAX,MUL,MAD,DIV,SHFL>Default 1,1,19,25,145,32
-ptx_opcode_latency_fp          4,13,4,5,39 # Opcode latencies for single precision floating points <ADD,MAX,MUL,MAD,DIV>Default 1,1,1,1,30
-ptx_opcode_latency_dp         8,19,8,8,330 # Opcode latencies for double precision floating points <ADD,MAX,MUL,MAD,DIV>Default 8,8,8,8,335
-ptx_opcode_latency_sfu                  100 # Opcode latencies for SFU instructionsDefault 8
-ptx_opcode_latency_tesnor                   64 # Opcode latencies for Tensor instructionsDefault 64
-ptx_opcode_initiation_int          2,2,2,2,8,4 # Opcode initiation intervals for integers <ADD,MAX,MUL,MAD,DIV,SHFL>Default 1,1,4,4,32,4
-ptx_opcode_initiation_fp            2,2,2,2,4 # Opcode initiation intervals for single precision floating points <ADD,MAX,MUL,MAD,DIV>Default 1,1,1,1,5
-ptx_opcode_initiation_dp          4,4,4,4,130 # Opcode initiation intervals for double precision floating points <ADD,MAX,MUL,MAD,DIV>Default 8,8,8,8,130
-ptx_opcode_initiation_sfu                    8 # Opcode initiation intervals for sfu instructionsDefault 8
-ptx_opcode_initiation_tensor                   64 # Opcode initiation intervals for tensor instructionsDefault 64
-cdp_latency         7200,8000,100,12000,1600 # CDP API latency <cudaStreamCreateWithFlags, cudaGetParameterBufferV2_init_perWarp, cudaGetParameterBufferV2_perKernel, cudaLaunchDeviceV2_init_perWarp, cudaLaunchDevicV2_perKernel>Default 7200,8000,100,12000,1600
-network_mode                           2 # Interconnection network mode
-inter_config_file                   mesh # Interconnection network config file
-icnt_in_buffer_limit                  512 # in_buffer_limit
-icnt_out_buffer_limit                  512 # out_buffer_limit
-icnt_subnets                           2 # subnets
-icnt_arbiter_algo                      1 # arbiter_algo
-icnt_verbose                           0 # inct_verbose
-icnt_grant_cycles                      1 # grant_cycles
-gpgpu_ptx_use_cuobjdump                    1 # Use cuobjdump to extract ptx and sass from binaries
-gpgpu_experimental_lib_support                    0 # Try to extract code from cuda libraries [Broken because of unknown cudaGetExportTable]
-checkpoint_option                      0 #  checkpointing flag (0 = no checkpoint)
-checkpoint_kernel                      1 #  checkpointing during execution of which kernel (1- 1st kernel)
-checkpoint_CTA                         0 #  checkpointing after # of CTA (< less than total CTA)
-resume_option                          0 #  resume flag (0 = no resume)
-resume_kernel                          0 #  Resume from which kernel (1= 1st kernel)
-resume_CTA                             0 #  resume from which CTA 
-checkpoint_CTA_t                       0 #  resume from which CTA 
-checkpoint_insn_Y                      0 #  resume from which CTA 
-gpgpu_ptx_convert_to_ptxplus                    0 # Convert SASS (native ISA) to ptxplus and run ptxplus
-gpgpu_ptx_force_max_capability                   70 # Force maximum compute capability
-gpgpu_ptx_inst_debug_to_file                    0 # Dump executed instructions' debug information to file
-gpgpu_ptx_inst_debug_file       inst_debug.txt # Executed instructions' debug output file
-gpgpu_ptx_inst_debug_thread_uid                    1 # Thread UID for executed instructions' debug output
-gpgpu_n_mem_for_l2wb_pcommit                   32 # number of memory modules (e.g. memory controllers) in gpu
-gpgpu_n_sub_partition_per_mchannel_for_l2wb_pcommit                    2 # number of memory subpartition in each memory module
-gpgpu_dl2_bsize_for_l2wb_pcommit                  128 # default 128 bytes
-gpgpu_simd_model                       1 # 1 = post-dominator
-gpgpu_shader_core_pipeline              2048:32 # shader core pipeline config, i.e., {<nthread>:<warpsize>}
-gpgpu_tex_cache:l1  N:4:128:256,L:R:m:N:L,T:512:8,128:2 # per-shader L1 texture cache  (READ-ONLY) config  {<nsets>:<bsize>:<assoc>,<rep>:<wr>:<alloc>:<wr_alloc>,<mshr>:<N>:<merge>,<mq>:<rf>}
-gpgpu_const_cache:l1 N:128:64:8,L:R:f:N:L,S:2:64,4 # per-shader L1 constant memory cache  (READ-ONLY) config  {<nsets>:<bsize>:<assoc>,<rep>:<wr>:<alloc>:<wr_alloc>,<mshr>:<N>:<merge>,<mq>} 
-gpgpu_cache:il1     N:64:128:16,L:R:f:N:L,S:2:48,4 # shader L1 instruction cache config  {<nsets>:<bsize>:<assoc>,<rep>:<wr>:<alloc>:<wr_alloc>,<mshr>:<N>:<merge>,<mq>} 
-gpgpu_cache:dl1     S:1:128:256,L:L:s:N:L,A:256:8,16:0,32 # per-shader L1 data cache config  {<nsets>:<bsize>:<assoc>,<rep>:<wr>:<alloc>:<wr_alloc>,<mshr>:<N>:<merge>,<mq> | none}
-gpgpu_l1_banks                         4 # The number of L1 cache banks
-gpgpu_l1_banks_byte_interleaving                   32 # l1 banks byte interleaving granularity
-gpgpu_l1_banks_hashing_function                    0 # l1 banks hashing function
-gpgpu_l1_latency                      20 # L1 Hit Latency
-gpgpu_smem_latency                    20 # smem Latency
-gpgpu_cache:dl1PrefL1                 none # per-shader L1 data cache config  {<nsets>:<bsize>:<assoc>,<rep>:<wr>:<alloc>:<wr_alloc>,<mshr>:<N>:<merge>,<mq> | none}
-gpgpu_cache:dl1PrefShared                 none # per-shader L1 data cache config  {<nsets>:<bsize>:<assoc>,<rep>:<wr>:<alloc>:<wr_alloc>,<mshr>:<N>:<merge>,<mq> | none}
-gpgpu_gmem_skip_L1D                    0 # global memory access skip L1D cache (implements -Xptxas -dlcm=cg, default=no skip)
-gpgpu_perfect_mem                      0 # enable perfect memory mode (no cache miss)
-n_regfile_gating_group                    4 # group of lanes that should be read/written together)
-gpgpu_clock_gated_reg_file                    0 # enable clock gated reg file for power calculations
-gpgpu_clock_gated_lanes                    0 # enable clock gated lanes for power calculations
-gpgpu_shader_registers                65536 # Number of registers per shader core. Limits number of concurrent CTAs. (default 8192)
-gpgpu_registers_per_block                65536 # Maximum number of registers per CTA. (default 8192)
-gpgpu_ignore_resources_limitation                    0 # gpgpu_ignore_resources_limitation (default 0)
-gpgpu_shader_cta                      32 # Maximum number of concurrent CTAs in shader (default 8)
-gpgpu_num_cta_barriers                   16 # Maximum number of named barriers per CTA (default 16)
-gpgpu_n_clusters                      80 # number of processing clusters
-gpgpu_n_cores_per_cluster                    1 # number of simd cores per cluster
-gpgpu_n_cluster_ejection_buffer_size                   32 # number of packets in ejection buffer
-gpgpu_n_ldst_response_buffer_size                    2 # number of response packets in ld/st unit ejection buffer
-gpgpu_shmem_per_block                65536 # Size of shared memory per thread block or CTA (default 48kB)
-gpgpu_shmem_size                   98304 # Size of shared memory per shader core (default 16kB)
-gpgpu_adaptive_cache_config            536870913 # adaptive_cache_config
-gpgpu_shmem_sizeDefault                98304 # Size of shared memory per shader core (default 16kB)
-gpgpu_shmem_size_PrefL1                16384 # Size of shared memory per shader core (default 16kB)
-gpgpu_shmem_size_PrefShared                16384 # Size of shared memory per shader core (default 16kB)
-gpgpu_shmem_num_banks                   32 # Number of banks in the shared memory in each shader core (default 16)
-gpgpu_shmem_limited_broadcast                    0 # Limit shared memory to do one broadcast per cycle (default on)
-gpgpu_shmem_warp_parts                    1 # Number of portions a warp is divided into for shared memory bank conflict check 
-gpgpu_mem_unit_ports                    1 # The number of memory transactions allowed per core cycle
-gpgpu_shmem_warp_parts                    1 # Number of portions a warp is divided into for shared memory bank conflict check 
-gpgpu_warpdistro_shader                   -1 # Specify which shader core to collect the warp size distribution from
-gpgpu_warp_issue_shader                    0 # Specify which shader core to collect the warp issue distribution from
-gpgpu_local_mem_map                    1 # Mapping from local memory space address to simulated GPU physical address space (default = enabled)
-gpgpu_num_reg_banks                   16 # Number of register banks (default = 8)
-gpgpu_reg_bank_use_warp_id                    0 # Use warp ID in mapping registers to banks (default = off)
-gpgpu_sub_core_model                    1 # Sub Core Volta/Pascal model (default = off)
-gpgpu_enable_specialized_operand_collector                    0 # enable_specialized_operand_collector
-gpgpu_operand_collector_num_units_sp                    4 # number of collector units (default = 4)
-gpgpu_operand_collector_num_units_dp                    0 # number of collector units (default = 0)
-gpgpu_operand_collector_num_units_sfu                    4 # number of collector units (default = 4)
-gpgpu_operand_collector_num_units_int                    0 # number of collector units (default = 0)
-gpgpu_operand_collector_num_units_tensor_core                    4 # number of collector units (default = 4)
-gpgpu_operand_collector_num_units_mem                    2 # number of collector units (default = 2)
-gpgpu_operand_collector_num_units_gen                    8 # number of collector units (default = 0)
-gpgpu_operand_collector_num_in_ports_sp                    1 # number of collector unit in ports (default = 1)
-gpgpu_operand_collector_num_in_ports_dp                    0 # number of collector unit in ports (default = 0)
-gpgpu_operand_collector_num_in_ports_sfu                    1 # number of collector unit in ports (default = 1)
-gpgpu_operand_collector_num_in_ports_int                    0 # number of collector unit in ports (default = 0)
-gpgpu_operand_collector_num_in_ports_tensor_core                    1 # number of collector unit in ports (default = 1)
-gpgpu_operand_collector_num_in_ports_mem                    1 # number of collector unit in ports (default = 1)
-gpgpu_operand_collector_num_in_ports_gen                    8 # number of collector unit in ports (default = 0)
-gpgpu_operand_collector_num_out_ports_sp                    1 # number of collector unit in ports (default = 1)
-gpgpu_operand_collector_num_out_ports_dp                    0 # number of collector unit in ports (default = 0)
-gpgpu_operand_collector_num_out_ports_sfu                    1 # number of collector unit in ports (default = 1)
-gpgpu_operand_collector_num_out_ports_int                    0 # number of collector unit in ports (default = 0)
-gpgpu_operand_collector_num_out_ports_tensor_core                    1 # number of collector unit in ports (default = 1)
-gpgpu_operand_collector_num_out_ports_mem                    1 # number of collector unit in ports (default = 1)
-gpgpu_operand_collector_num_out_ports_gen                    8 # number of collector unit in ports (default = 0)
-gpgpu_coalesce_arch                   60 # Coalescing arch (GT200 = 13, Fermi = 20)
-gpgpu_num_sched_per_core                    4 # Number of warp schedulers per core
-gpgpu_max_insn_issue_per_warp                    1 # Max number of instructions that can be issued per warp in one cycle by scheduler (either 1 or 2)
-gpgpu_dual_issue_diff_exec_units                    1 # should dual issue use two different execution unit resources (Default = 1)
-gpgpu_simt_core_sim_order                    1 # Select the simulation order of cores in a cluster (0=Fix, 1=Round-Robin)
-gpgpu_pipeline_widths 4,4,4,4,4,4,4,4,4,4,8,4,4 # Pipeline widths ID_OC_SP,ID_OC_DP,ID_OC_INT,ID_OC_SFU,ID_OC_MEM,OC_EX_SP,OC_EX_DP,OC_EX_INT,OC_EX_SFU,OC_EX_MEM,EX_WB,ID_OC_TENSOR_CORE,OC_EX_TENSOR_CORE
-gpgpu_tensor_core_avail                    1 # Tensor Core Available (default=0)
-gpgpu_num_sp_units                     4 # Number of SP units (default=1)
-gpgpu_num_dp_units                     4 # Number of DP units (default=0)
-gpgpu_num_int_units                    4 # Number of INT units (default=0)
-gpgpu_num_sfu_units                    4 # Number of SF units (default=1)
-gpgpu_num_tensor_core_units                    4 # Number of tensor_core units (default=1)
-gpgpu_num_mem_units                    1 # Number if ldst units (default=1) WARNING: not hooked up to anything
-gpgpu_scheduler                      gto # Scheduler configuration: < lrr | gto | two_level_active > If two_level_active:<num_active_warps>:<inner_prioritization>:<outer_prioritization>For complete list of prioritization values see shader.h enum scheduler_prioritization_typeDefault: gto
-gpgpu_concurrent_kernel_sm                    0 # Support concurrent kernels on a SM (default = disabled)
-gpgpu_perfect_inst_const_cache                    1 # perfect inst and const cache mode, so all inst and const hits in the cache(default = disabled)
-gpgpu_inst_fetch_throughput                    4 # the number of fetched intruction per warp each cycle
-gpgpu_reg_file_port_throughput                    2 # the number ports of the register file
-specialized_unit_1         0,4,4,4,4,BRA # specialized unit config {<enabled>,<num_units>:<latency>:<initiation>,<ID_OC_SPEC>:<OC_EX_SPEC>,<NAME>}
-specialized_unit_2         0,4,4,4,4,BRA # specialized unit config {<enabled>,<num_units>:<latency>:<initiation>,<ID_OC_SPEC>:<OC_EX_SPEC>,<NAME>}
-specialized_unit_3         0,4,4,4,4,BRA # specialized unit config {<enabled>,<num_units>:<latency>:<initiation>,<ID_OC_SPEC>:<OC_EX_SPEC>,<NAME>}
-specialized_unit_4         0,4,4,4,4,BRA # specialized unit config {<enabled>,<num_units>:<latency>:<initiation>,<ID_OC_SPEC>:<OC_EX_SPEC>,<NAME>}
-specialized_unit_5         0,4,4,4,4,BRA # specialized unit config {<enabled>,<num_units>:<latency>:<initiation>,<ID_OC_SPEC>:<OC_EX_SPEC>,<NAME>}
-specialized_unit_6         0,4,4,4,4,BRA # specialized unit config {<enabled>,<num_units>:<latency>:<initiation>,<ID_OC_SPEC>:<OC_EX_SPEC>,<NAME>}
-specialized_unit_7         0,4,4,4,4,BRA # specialized unit config {<enabled>,<num_units>:<latency>:<initiation>,<ID_OC_SPEC>:<OC_EX_SPEC>,<NAME>}
-specialized_unit_8         0,4,4,4,4,BRA # specialized unit config {<enabled>,<num_units>:<latency>:<initiation>,<ID_OC_SPEC>:<OC_EX_SPEC>,<NAME>}
-gpgpu_perf_sim_memcpy                    1 # Fill the L2 cache on memcpy
-gpgpu_simple_dram_model                    0 # simple_dram_model with fixed latency and BW
-gpgpu_dram_scheduler                    1 # 0 = fifo, 1 = FR-FCFS (defaul)
-gpgpu_dram_partition_queues          64:64:64:64 # i2$:$2d:d2$:$2i
-l2_ideal                               0 # Use a ideal L2 cache that always hit
-gpgpu_cache:dl2     S:32:128:24,L:B:m:L:P,A:192:4,32:0,32 # unified banked L2 data cache config  {<nsets>:<bsize>:<assoc>,<rep>:<wr>:<alloc>:<wr_alloc>,<mshr>:<N>:<merge>,<mq>}
-gpgpu_cache:dl2_texture_only                    0 # L2 cache used for texture only
-gpgpu_n_mem                           32 # number of memory modules (e.g. memory controllers) in gpu
-gpgpu_n_sub_partition_per_mchannel                    2 # number of memory subpartition in each memory module
-gpgpu_n_mem_per_ctrlr                    1 # number of memory chips per memory controller
-gpgpu_memlatency_stat                   14 # track and display latency statistics 0x2 enables MC, 0x4 enables queue logs
-gpgpu_frfcfs_dram_sched_queue_size                   64 # 0 = unlimited (default); # entries per chip
-gpgpu_dram_return_queue_size                  192 # 0 = unlimited (default); # entries per chip
-gpgpu_dram_buswidth                   16 # default = 4 bytes (8 bytes per cycle at DDR)
-gpgpu_dram_burst_length                    2 # Burst length of each DRAM request (default = 4 data bus cycle)
-dram_data_command_freq_ratio                    2 # Frequency ratio between DRAM data bus and command bus (default = 2 times, i.e. DDR)
-gpgpu_dram_timing_opt nbk=16:CCD=1:RRD=3:RCD=12:RAS=28:RP=12:RC=40: CL=12:WL=2:CDLR=3:WR=10:nbkgrp=4:CCDL=2:RTPL=3 # DRAM timing parameters = {nbk:tCCD:tRRD:tRCD:tRAS:tRP:tRC:CL:WL:tCDLR:tWR:nbkgrp:tCCDL:tRTPL}
-gpgpu_l2_rop_latency                  160 # ROP queue latency (default 85)
-dram_latency                         200 # DRAM latency (default 30)
-dram_write_latency                   600 # DRAM write latency (default 100)
-dram_dual_bus_interface                    1 # dual_bus_interface (default = 0) 
-dram_bnk_indexing_policy                    0 # dram_bnk_indexing_policy (0 = normal indexing, 1 = Xoring with the higher bits) (Default = 0)
-dram_bnkgrp_indexing_policy                    1 # dram_bnkgrp_indexing_policy (0 = take higher bits, 1 = take lower bits) (Default = 0)
-dram_seperate_write_queue_enable                    0 # Seperate_Write_Queue_Enable
-dram_write_queue_size             32:28:16 # Write_Queue_Size
-dram_elimnate_rw_turnaround                    0 # elimnate_rw_turnaround i.e set tWTR and tRTW = 0
-icnt_flit_size                        40 # icnt_flit_size
-gpgpu_mem_addr_mapping dramid@8;00000000.00000000.00000000.00000000.0000RRRR.RRRRRRRR.RBBBCCCB.CCCSSSSS # mapping memory address to dram model {dramid@<start bit>;<memory address map>}
-gpgpu_mem_addr_test                    0 # run sweep test to check address mapping for aliased address
-gpgpu_mem_address_mask                    1 # 0 = old addressing mask, 1 = new addressing mask, 2 = new add. mask + flipped bank sel and chip sel bits
-gpgpu_memory_partition_indexing                    0 # 0 = no indexing, 1 = bitwise xoring, 2 = IPoly, 3 = custom indexing
-gpuwattch_xml_file         gpuwattch.xml # GPUWattch XML file
-power_simulation_enabled                    0 # Turn on power simulator (1=On, 0=Off)
-power_per_cycle_dump                    0 # Dump detailed power output each cycle
-power_trace_enabled                    0 # produce a file for the power trace (1=On, 0=Off)
-power_trace_zlevel                     6 # Compression level of the power trace output log (0=no comp, 9=highest)
-steady_power_levels_enabled                    0 # produce a file for the steady power levels (1=On, 0=Off)
-steady_state_definition                  8:4 # allowed deviation:number of samples
-gpgpu_max_cycle                        0 # terminates gpu simulation early (0 = no limit)
-gpgpu_max_insn                         0 # terminates gpu simulation early (0 = no limit)
-gpgpu_max_cta                          0 # terminates gpu simulation early (0 = no limit)
-gpgpu_max_completed_cta                    0 # terminates gpu simulation early (0 = no limit)
-gpgpu_runtime_stat                   500 # display runtime statistics such as dram utilization {<freq>:<flag>}
-liveness_message_freq                    1 # Minimum number of seconds between simulation liveness messages (0 = always print)
-gpgpu_compute_capability_major                    7 # Major compute capability version number
-gpgpu_compute_capability_minor                    0 # Minor compute capability version number
-gpgpu_flush_l1_cache                    1 # Flush L1 cache at the end of each kernel call
-gpgpu_flush_l2_cache                    0 # Flush L2 cache at the end of each kernel call
-gpgpu_deadlock_detect                    1 # Stop the simulation at deadlock (1=on (default), 0=off)
-gpgpu_ptx_instruction_classification                    0 # if enabled will classify ptx instruction types per kernel (Max 255 kernels now)
-gpgpu_ptx_sim_mode                     0 # Select between Performance (default) or Functional simulation (1)
-gpgpu_clock_domains 1132.0:1132.0:1132.0:850.0 # Clock Domain Frequencies in MhZ {<Core Clock>:<ICNT Clock>:<L2 Clock>:<DRAM Clock>}
-gpgpu_max_concurrent_kernel                    8 # maximum kernels that can run concurrently on GPU
-gpgpu_cflog_interval                    0 # Interval between each snapshot in control flow logger
-visualizer_enabled               a89ae6a2f6217ce426980a959c61b9bf  /home/pli11/Desktop/re_test/megakv/search/run
Extracting PTX file and ptxas options    1: run.1.sm_70.ptx -arch=sm_70
      0 # Turn on visualizer output (1=On, 0=Off)
-visualizer_outputfile                 NULL # Specifies the output log file for visualizer
-visualizer_zlevel                      6 # Compression level of the visualizer output log (0=no comp, 9=highest)
-gpgpu_stack_size_limit                 1024 # GPU thread stack size
-gpgpu_heap_size_limit              8388608 # GPU malloc heap size 
-gpgpu_runtime_sync_depth_limit                    2 # GPU device runtime synchronize depth
-gpgpu_runtime_pending_launch_count_limit                 2048 # GPU device runtime pending launch count
-trace_enabled                          0 # Turn on traces
-trace_components                    none # comma seperated list of traces to enable. Complete list found in trace_streams.tup. Default none
-trace_sampling_core                    0 # The core which is printed using CORE_DPRINTF. Default 0
-trace_sampling_memory_partition                   -1 # The memory partition which is printed using MEMPART_DPRINTF. Default -1 (i.e. all)
-enable_ptx_file_line_stats                    1 # Turn on PTX source line statistic profiling. (1 = On)
-ptx_line_stats_filename gpgpu_inst_stats.txt # Output file for PTX source line statistics.
-gpgpu_kernel_launch_latency                 5000 # Kernel launch latency in cycles. Default: 0
-gpgpu_cdp_enabled                      0 # Turn on CDP
-gpgpu_TB_launch_latency                    0 # thread block launch latency in cycles. Default: 0
DRAM Timing Options:
nbk                                    16 # number of banks
CCD                                     1 # column to column delay
RRD                                     3 # minimal delay between activation of rows in different banks
RCD                                    12 # row to column delay
RAS                                    28 # time needed to activate row
RP                                     12 # time needed to precharge (deactivate) row
RC                                     40 # row cycle time
CDLR                                    3 # switching from write to read (changes tWTR)
WR                                     10 # last data-in to row precharge
CL                                     12 # CAS latency
WL                                      2 # Write latency
nbkgrp                                  4 # number of bank groups
CCDL                                    2 # column to column delay between accesses to different bank groups
RTPL                                    3 # read to precharge delay between accesses to different bank groups
Total number of memory sub partition = 64
addr_dec_mask[CHIP]  = 0000000000001f00 	high:13 low:8
addr_dec_mask[BK]    = 00000000000e2000 	high:20 low:13
addr_dec_mask[ROW]   = 00000001fff00000 	high:33 low:20
addr_dec_mask[COL]   = 000000000001c0ff 	high:17 low:0
addr_dec_mask[BURST] = 000000000000001f 	high:5 low:0
sub_partition_id_mask = 0000000000002000
GPGPU-Sim uArch: clock freqs: 1132000000.000000:1132000000.000000:1132000000.000000:850000000.000000
GPGPU-Sim uArch: clock periods: 0.00000000088339222615:0.00000000088339222615:0.00000000088339222615:0.00000000117647058824
*** Initializing Memory Statistics ***
GPGPU-Sim uArch: performance model initialization complete.
self exe links to: /home/pli11/Desktop/re_test/megakv/search/run
self exe links to: /home/pli11/Desktop/re_test/megakv/search/run
10.1
GPGPU-Sim PTX: __cudaRegisterFatBinary, fat_cubin_handle = 1, filename=default
self exe links to: /home/pli11/Desktop/re_test/megakv/search/run
Running md5sum using "md5sum /home/pli11/Desktop/re_test/megakv/search/run "
self exe links to: /home/pli11/Desktop/re_test/megakv/search/run
Extracting specific PTX file named run.1.sm_70.ptx 
GPGPU-Sim PTX: __cudaRegisterFunction _Z11hash_searchP7selem_sPjP8bucket_sii : hostFun 0x0x40277b, fat_cubin_handle = 1
GPGPU-Sim PTX: Parsing run.1.sm_70.ptx
GPGPU-Sim PTX: instruction assembly for function '_Z16hash_search_nvmbP7selem_sPjP8bucket_sii'...   done.
GPGPU-Sim PTX: instruction assembly for function '_Z16hash_search_nvmoP7selem_sPjP8bucket_sii'...   done.
GPGPU-Sim PTX: instruction assembly for function '_Z16hash_search_nvmuP7selem_sPjP8bucket_sii'...   done.
GPGPU-Sim PTX: instruction assembly for function '_Z11kernel_l2wbv'...   done.
GPGPU-Sim PTX: instruction assembly for function '_Z15kernel_l2wb_pctv'...   done.
GPGPU-Sim PTX: instruction assembly for function '_Z11hash_searchP7selem_sPjP8bucket_sii'...   done.
GPGPU-Sim PTX: finished parsing EMBEDDED .ptx file run.1.sm_70.ptx
GPGPU-Sim PTX: loading globals with explicit initializers... 
GPGPU-Sim PTX: finished loading globals (0 bytes total).
GPGPU-Sim PTX: loading constants with explicit initializers...  done.
GPGPU-Sim PTX: Loading PTXInfo from run.1.sm_70.ptx
GPGPU-Sim PTX: Kernel '_Z11hash_searchP7selem_sPjP8bucket_sii' : regs=12, lmem=0, smem=0, cmem=384
GPGPU-Sim PTX: Kernel '_Z15kernel_l2wb_pctv' : regs=8, lmem=0, smem=0, cmem=352
GPGPU-Sim PTX: Kernel '_Z11kernel_l2wbv' : regs=8, lmem=0, smem=0, cmem=352
GPGPU-Sim PTX: Kernel '_Z16hash_search_nvmuP7selem_sPjP8bucket_sii' : regs=12, lmem=0, smem=0, cmem=384
GPGPU-Sim PTX: Kernel '_Z16hash_search_nvmoP7selem_sPjP8bucket_sii' : regs=12, lmem=0, smem=0, cmem=384
GPGPU-Sim PTX: Kernel '_Z16hash_search_nvmbP7selem_sPjP8bucket_sii' : regs=16, lmem=0, smem=0, cmem=384
GPGPU-Sim PTX: __cudaRegisterFunction _Z15kernel_l2wb_pctv : hostFun 0x0x402611, fat_cubin_handle = 1
GPGPU-Sim PTX: __cudaRegisterFunction _Z11kernel_l2wbv : hostFun 0x0x402517, fat_cubin_handle = 1
GPGPU-Sim PTX: __cudaRegisterFunction _Z16hash_search_nvmuP7selem_sPjP8bucket_sii : hostFun 0x0x4023ee, fat_cubin_handle = 1
GPGPU-Sim PTX: __cudaRegisterFunction _Z16hash_search_nvmoP7selem_sPjP8bucket_sii : hostFun 0x0x402255, fat_cubin_handle = 1
GPGPU-Sim PTX: __cudaRegisterFunction _Z16hash_search_nvmbP7selem_sPjP8bucket_sii : hostFun 0x0x4020bc, fat_cubin_handle = 1
GPGPU-Sim PTX: cudaStreamCreate
GPGPU-Sim: synchronize waiting for inactive GPU simulation
GPGPU-Sim API: Stream Manager State
GPGPU-Sim API:    stream 1 has 2 operations
GPGPU-Sim API:       0 :  stream operation memcpy host-to-device
GPGPU-Sim API:       1 :  stream operation memcpy device-to-host
GPGPU-Sim: detected inactive GPU simulation thread
GPGPU-Sim: synchronize waiting for inactive GPU simulation
GPGPU-Sim API: Stream Manager State
GPGPU-Sim API:    stream 1 has 1 operations
GPGPU-Sim API:       0 :  stream operation memcpy host-to-device
GPGPU-Sim: detected inactive GPU simulation thread
GPGPU-Sim PTX: Setting up arguments for 8 bytes starting at 0x7fff63fec278..
GPGPU-Sim PTX: Setting up arguments for 8 bytes starting at 0x7fff63fec270..
GPGPU-Sim PTX: Setting up arguments for 8 bytes starting at 0x7fff63fec268..
GPGPU-Sim PTX: Setting up arguments for 4 bytes starting at 0x7fff63fec264..
GPGPU-Sim PTX: Setting up arguments for 4 bytes starting at 0x7fff63fec260..

GPGPU-Sim PTX: cudaLaunch for 0x0x402255 (mode=performance simulation) on stream 1
GPGPU-Sim PTX: finding reconvergence points for '_Z16hash_search_nvmoP7selem_sPjP8bucket_sii'...
GPGPU-Sim PTX: Finding dominators for '_Z16hash_search_nvmoP7selem_sPjP8bucket_sii'...
GPGPU-Sim PTX: Finding immediate dominators for '_Z16hash_search_nvmoP7selem_sPjP8bucket_sii'...
GPGPU-Sim PTX: Finding postdominators for '_Z16hash_search_nvmoP7selem_sPjP8bucket_sii'...
GPGPU-Sim PTX: Finding immediate postdominators for '_Z16hash_search_nvmoP7selem_sPjP8bucket_sii'...
GPGPU-Sim PTX: pre-decoding instructions for '_Z16hash_search_nvmoP7selem_sPjP8bucket_sii'...
GPGPU-Sim PTX: reconvergence points for _Z16hash_search_nvmoP7selem_sPjP8bucket_sii...
GPGPU-Sim PTX:  1 (potential) branch divergence @  PC=0x258 (run.1.sm_70.ptx:138) @%p1 bra BB1_7;
GPGPU-Sim PTX:    immediate post dominator      @  PC=0x438 (run.1.sm_70.ptx:217) ret;
GPGPU-Sim PTX:  2 (potential) branch divergence @  PC=0x2e0 (run.1.sm_70.ptx:158) @%p2 bra BB1_4;
GPGPU-Sim PTX:    immediate post dominator      @  PC=0x348 (run.1.sm_70.ptx:178) setp.eq.s32%p3, %r47, %r46;
GPGPU-Sim PTX:  3 (potential) branch divergence @  PC=0x3b8 (run.1.sm_70.ptx:192) @%p5 bra BB1_6;
GPGPU-Sim PTX:    immediate post dominator      @  PC=0x420 (run.1.sm_70.ptx:212) add.s32 %r45, %r45, %r44;
GPGPU-Sim PTX:  4 (potential) branch divergence @  PC=0x430 (run.1.sm_70.ptx:214) @%p6 bra BB1_2;
GPGPU-Sim PTX:    immediate post dominator      @  PC=0x438 (run.1.sm_70.ptx:217) ret;
GPGPU-Sim PTX: ... end of reconvergence points for _Z16hash_search_nvmoP7selem_sPjP8bucket_sii
GPGPU-Sim PTX: ... done pre-decoding instructions for '_Z16hash_search_nvmoP7selem_sPjP8bucket_sii'.
GPGPU-Sim PTX: pushing kernel '_Z16hash_search_nvmoP7selem_sPjP8bucket_sii' to stream 1, gridDim= (8,1,1) blockDim = (1024,1,1) 
GPGPU-Sim: synchronize waiting for inactive GPU simulation
GPGPU-Sim API: Stream Manager State
GPGPU-Sim API:    stream 1 has 1 operations
GPGPU-Sim API:       0 :  stream operation kernel
GPGPU-Sim uArch: Shader 0 bind to kernel 1 '_Z16hash_search_nvmoP7selem_sPjP8bucket_sii'
GPGPU-Sim uArch: CTA/core = 2, limited by: threads
GPGPU-Sim: Reconfigure L1 cache to 128KB
GPGPU-Sim uArch: Shader 1 bind to kernel 1 '_Z16hash_search_nvmoP7selem_sPjP8bucket_sii'
GPGPU-Sim uArch: Shader 2 bind to kernel 1 '_Z16hash_search_nvmoP7selem_sPjP8bucket_sii'
GPGPU-Sim uArch: Shader 3 bind to kernel 1 '_Z16hash_search_nvmoP7selem_sPjP8bucket_sii'
GPGPU-Sim uArch: Shader 4 bind to kernel 1 '_Z16hash_search_nvmoP7selem_sPjP8bucket_sii'
GPGPU-Sim uArch: Shader 5 bind to kernel 1 '_Z16hash_search_nvmoP7selem_sPjP8bucket_sii'
GPGPU-Sim uArch: Shader 6 bind to kernel 1 '_Z16hash_search_nvmoP7selem_sPjP8bucket_sii'
GPGPU-Sim uArch: Shader 7 bind to kernel 1 '_Z16hash_search_nvmoP7selem_sPjP8bucket_sii'
Destroy streams for kernel 1: size 0
kernel_name = _Z16hash_search_nvmoP7selem_sPjP8bucket_sii 
kernel_launch_uid = 1 
gpu_sim_cycle = 277221
gpu_sim_insn = 18849792
gpu_ipc =      67.9955
gpu_tot_sim_cycle = 277221
gpu_tot_sim_insn = 18849792
gpu_tot_ipc =      67.9955
gpu_tot_issued_cta = 8
gpu_occupancy = 49.0983% 
gpu_tot_occupancy = 49.0983% 
max_total_param_size = 0
gpu_stall_dramfull = 0
gpu_stall_icnt2sh    = 0
partiton_level_parallism =       1.5858
partiton_level_parallism_total  =       1.5858
partiton_level_parallism_util =       2.1349
partiton_level_parallism_util_total  =       2.1349
L2_BW  =      57.4427 GB/Sec
L2_BW_total  =      57.4427 GB/Sec
gpu_total_sim_rate=25928

========= Core cache stats =========
L1I_cache:
	L1I_total_cache_accesses = 0
	L1I_total_cache_misses = 0
	L1I_total_cache_pending_hits = 0
	L1I_total_cache_reservation_fails = 0
L1D_cache:
	L1D_cache_core[0]: Access = 55296, Miss = 51659, Miss_rate = 0.934, Pending_hits = 0, Reservation_fails = 0
	L1D_cache_core[1]: Access = 55296, Miss = 51640, Miss_rate = 0.934, Pending_hits = 0, Reservation_fails = 0
	L1D_cache_core[2]: Access = 55296, Miss = 51630, Miss_rate = 0.934, Pending_hits = 0, Reservation_fails = 0
	L1D_cache_core[3]: Access = 55296, Miss = 51675, Miss_rate = 0.935, Pending_hits = 0, Reservation_fails = 0
	L1D_cache_core[4]: Access = 55296, Miss = 51549, Miss_rate = 0.932, Pending_hits = 0, Reservation_fails = 0
	L1D_cache_core[5]: Access = 55296, Miss = 51505, Miss_rate = 0.931, Pending_hits = 0, Reservation_fails = 0
	L1D_cache_core[6]: Access = 55296, Miss = 51658, Miss_rate = 0.934, Pending_hits = 0, Reservation_fails = 0
	L1D_cache_core[7]: Access = 55296, Miss = 51639, Miss_rate = 0.934, Pending_hits = 0, Reservation_fails = 0
	L1D_cache_core[8]: Access = 0, Miss = 0, Miss_rate = -nan, Pending_hits = 0, Reservation_fails = 0
	L1D_cache_core[9]: Access = 0, Miss = 0, Miss_rate = -nan, Pending_hits = 0, Reservation_fails = 0
	L1D_cache_core[10]: Access = 0, Miss = 0, Miss_rate = -nan, Pending_hits = 0, Reservation_fails = 0
	L1D_cache_core[11]: Access = 0, Miss = 0, Miss_rate = -nan, Pending_hits = 0, Reservation_fails = 0
	L1D_cache_core[12]: Access = 0, Miss = 0, Miss_rate = -nan, Pending_hits = 0, Reservation_fails = 0
	L1D_cache_core[13]: Access = 0, Miss = 0, Miss_rate = -nan, Pending_hits = 0, Reservation_fails = 0
	L1D_cache_core[14]: Access = 0, Miss = 0, Miss_rate = -nan, Pending_hits = 0, Reservation_fails = 0
	L1D_cache_core[15]: Access = 0, Miss = 0, Miss_rate = -nan, Pending_hits = 0, Reservation_fails = 0
	L1D_cache_core[16]: Access = 0, Miss = 0, Miss_rate = -nan, Pending_hits = 0, Reservation_fails = 0
	L1D_cache_core[17]: Access = 0, Miss = 0, Miss_rate = -nan, Pending_hits = 0, Reservation_fails = 0
	L1D_cache_core[18]: Access = 0, Miss = 0, Miss_rate = -nan, Pending_hits = 0, Reservation_fails = 0
	L1D_cache_core[19]: Access = 0, Miss = 0, Miss_rate = -nan, Pending_hits = 0, Reservation_fails = 0
	L1D_cache_core[20]: Access = 0, Miss = 0, Miss_rate = -nan, Pending_hits = 0, Reservation_fails = 0
	L1D_cache_core[21]: Access = 0, Miss = 0, Miss_rate = -nan, Pending_hits = 0, Reservation_fails = 0
	L1D_cache_core[22]: Access = 0, Miss = 0, Miss_rate = -nan, Pending_hits = 0, Reservation_fails = 0
	L1D_cache_core[23]: Access = 0, Miss = 0, Miss_rate = -nan, Pending_hits = 0, Reservation_fails = 0
	L1D_cache_core[24]: Access = 0, Miss = 0, Miss_rate = -nan, Pending_hits = 0, Reservation_fails = 0
	L1D_cache_core[25]: Access = 0, Miss = 0, Miss_rate = -nan, Pending_hits = 0, Reservation_fails = 0
	L1D_cache_core[26]: Access = 0, Miss = 0, Miss_rate = -nan, Pending_hits = 0, Reservation_fails = 0
	L1D_cache_core[27]: Access = 0, Miss = 0, Miss_rate = -nan, Pending_hits = 0, Reservation_fails = 0
	L1D_cache_core[28]: Access = 0, Miss = 0, Miss_rate = -nan, Pending_hits = 0, Reservation_fails = 0
	L1D_cache_core[29]: Access = 0, Miss = 0, Miss_rate = -nan, Pending_hits = 0, Reservation_fails = 0
	L1D_cache_core[30]: Access = 0, Miss = 0, Miss_rate = -nan, Pending_hits = 0, Reservation_fails = 0
	L1D_cache_core[31]: Access = 0, Miss = 0, Miss_rate = -nan, Pending_hits = 0, Reservation_fails = 0
	L1D_cache_core[32]: Access = 0, Miss = 0, Miss_rate = -nan, Pending_hits = 0, Reservation_fails = 0
	L1D_cache_core[33]: Access = 0, Miss = 0, Miss_rate = -nan, Pending_hits = 0, Reservation_fails = 0
	L1D_cache_core[34]: Access = 0, Miss = 0, Miss_rate = -nan, Pending_hits = 0, Reservation_fails = 0
	L1D_cache_core[35]: Access = 0, Miss = 0, Miss_rate = -nan, Pending_hits = 0, Reservation_fails = 0
	L1D_cache_core[36]: Access = 0, Miss = 0, Miss_rate = -nan, Pending_hits = 0, Reservation_fails = 0
	L1D_cache_core[37]: Access = 0, Miss = 0, Miss_rate = -nan, Pending_hits = 0, Reservation_fails = 0
	L1D_cache_core[38]: Access = 0, Miss = 0, Miss_rate = -nan, Pending_hits = 0, Reservation_fails = 0
	L1D_cache_core[39]: Access = 0, Miss = 0, Miss_rate = -nan, Pending_hits = 0, Reservation_fails = 0
	L1D_cache_core[40]: Access = 0, Miss = 0, Miss_rate = -nan, Pending_hits = 0, Reservation_fails = 0
	L1D_cache_core[41]: Access = 0, Miss = 0, Miss_rate = -nan, Pending_hits = 0, Reservation_fails = 0
	L1D_cache_core[42]: Access = 0, Miss = 0, Miss_rate = -nan, Pending_hits = 0, Reservation_fails = 0
	L1D_cache_core[43]: Access = 0, Miss = 0, Miss_rate = -nan, Pending_hits = 0, Reservation_fails = 0
	L1D_cache_core[44]: Access = 0, Miss = 0, Miss_rate = -nan, Pending_hits = 0, Reservation_fails = 0
	L1D_cache_core[45]: Access = 0, Miss = 0, Miss_rate = -nan, Pending_hits = 0, Reservation_fails = 0
	L1D_cache_core[46]: Access = 0, Miss = 0, Miss_rate = -nan, Pending_hits = 0, Reservation_fails = 0
	L1D_cache_core[47]: Access = 0, Miss = 0, Miss_rate = -nan, Pending_hits = 0, Reservation_fails = 0
	L1D_cache_core[48]: Access = 0, Miss = 0, Miss_rate = -nan, Pending_hits = 0, Reservation_fails = 0
	L1D_cache_core[49]: Access = 0, Miss = 0, Miss_rate = -nan, Pending_hits = 0, Reservation_fails = 0
	L1D_cache_core[50]: Access = 0, Miss = 0, Miss_rate = -nan, Pending_hits = 0, Reservation_fails = 0
	L1D_cache_core[51]: Access = 0, Miss = 0, Miss_rate = -nan, Pending_hits = 0, Reservation_fails = 0
	L1D_cache_core[52]: Access = 0, Miss = 0, Miss_rate = -nan, Pending_hits = 0, Reservation_fails = 0
	L1D_cache_core[53]: Access = 0, Miss = 0, Miss_rate = -nan, Pending_hits = 0, Reservation_fails = 0
	L1D_cache_core[54]: Access = 0, Miss = 0, Miss_rate = -nan, Pending_hits = 0, Reservation_fails = 0
	L1D_cache_core[55]: Access = 0, Miss = 0, Miss_rate = -nan, Pending_hits = 0, Reservation_fails = 0
	L1D_cache_core[56]: Access = 0, Miss = 0, Miss_rate = -nan, Pending_hits = 0, Reservation_fails = 0
	L1D_cache_core[57]: Access = 0, Miss = 0, Miss_rate = -nan, Pending_hits = 0, Reservation_fails = 0
	L1D_cache_core[58]: Access = 0, Miss = 0, Miss_rate = -nan, Pending_hits = 0, Reservation_fails = 0
	L1D_cache_core[59]: Access = 0, Miss = 0, Miss_rate = -nan, Pending_hits = 0, Reservation_fails = 0
	L1D_cache_core[60]: Access = 0, Miss = 0, Miss_rate = -nan, Pending_hits = 0, Reservation_fails = 0
	L1D_cache_core[61]: Access = 0, Miss = 0, Miss_rate = -nan, Pending_hits = 0, Reservation_fails = 0
	L1D_cache_core[62]: Access = 0, Miss = 0, Miss_rate = -nan, Pending_hits = 0, Reservation_fails = 0
	L1D_cache_core[63]: Access = 0, Miss = 0, Miss_rate = -nan, Pending_hits = 0, Reservation_fails = 0
	L1D_cache_core[64]: Access = 0, Miss = 0, Miss_rate = -nan, Pending_hits = 0, Reservation_fails = 0
	L1D_cache_core[65]: Access = 0, Miss = 0, Miss_rate = -nan, Pending_hits = 0, Reservation_fails = 0
	L1D_cache_core[66]: Access = 0, Miss = 0, Miss_rate = -nan, Pending_hits = 0, Reservation_fails = 0
	L1D_cache_core[67]: Access = 0, Miss = 0, Miss_rate = -nan, Pending_hits = 0, Reservation_fails = 0
	L1D_cache_core[68]: Access = 0, Miss = 0, Miss_rate = -nan, Pending_hits = 0, Reservation_fails = 0
	L1D_cache_core[69]: Access = 0, Miss = 0, Miss_rate = -nan, Pending_hits = 0, Reservation_fails = 0
	L1D_cache_core[70]: Access = 0, Miss = 0, Miss_rate = -nan, Pending_hits = 0, Reservation_fails = 0
	L1D_cache_core[71]: Access = 0, Miss = 0, Miss_rate = -nan, Pending_hits = 0, Reservation_fails = 0
	L1D_cache_core[72]: Access = 0, Miss = 0, Miss_rate = -nan, Pending_hits = 0, Reservation_fails = 0
	L1D_cache_core[73]: Access = 0, Miss = 0, Miss_rate = -nan, Pending_hits = 0, Reservation_fails = 0
	L1D_cache_core[74]: Access = 0, Miss = 0, Miss_rate = -nan, Pending_hits = 0, Reservation_fails = 0
	L1D_cache_core[75]: Access = 0, Miss = 0, Miss_rate = -nan, Pending_hits = 0, Reservation_fails = 0
	L1D_cache_core[76]: Access = 0, Miss = 0, Miss_rate = -nan, Pending_hits = 0, Reservation_fails = 0
	L1D_cache_core[77]: Access = 0, Miss = 0, Miss_rate = -nan, Pending_hits = 0, Reservation_fails = 0
	L1D_cache_core[78]: Access = 0, Miss = 0, Miss_rate = -nan, Pending_hits = 0, Reservation_fails = 0
	L1D_cache_core[79]: Access = 0, Miss = 0, Miss_rate = -nan, Pending_hits = 0, Reservation_fails = 0
	L1D_total_cache_accesses = 442368
	L1D_total_cache_misses = 412955
	L1D_total_cache_miss_rate = 0.9335
	L1D_total_cache_pending_hits = 0
	L1D_total_cache_reservation_fails = 0
	L1D_cache_data_port_util = 0.014
	L1D_cache_fill_port_util = 0.173
L1C_cache:
	L1C_total_cache_accesses = 0
	L1C_total_cache_misses = 0
	L1C_total_cache_pending_hits = 0
	L1C_total_cache_reservation_fails = 0
L1T_cache:
	L1T_total_cache_accesses = 0
	L1T_total_cache_misses = 0
	L1T_total_cache_pending_hits = 0
	L1T_total_cache_reservation_fails = 0

Total_core_cache_stats:
	Total_core_cache_stats_breakdown[GLOBAL_ACC_R][HIT] = 29413
	Total_core_cache_stats_breakdown[GLOBAL_ACC_R][HIT_RESERVED] = 0
	Total_core_cache_stats_breakdown[GLOBAL_ACC_R][MISS] = 301081
	Total_core_cache_stats_breakdown[GLOBAL_ACC_R][RESERVATION_FAIL] = 0
	Total_core_cache_stats_breakdown[GLOBAL_ACC_R][SECTOR_MISS] = 79106
	Total_core_cache_stats_breakdown[LOCAL_ACC_R][HIT] = 0
	Total_core_cache_stats_breakdown[LOCAL_ACC_R][HIT_RESERVED] = 0
	Total_core_cache_stats_breakdown[LOCAL_ACC_R][MISS] = 0
	Total_core_cache_stats_breakdown[LOCAL_ACC_R][RESERVATION_FAIL] = 0
	Total_core_cache_stats_breakdown[LOCAL_ACC_R][SECTOR_MISS] = 0
	Total_core_cache_stats_breakdown[CONST_ACC_R][HIT] = 0
	Total_core_cache_stats_breakdown[CONST_ACC_R][HIT_RESERVED] = 0
	Total_core_cache_stats_breakdown[CONST_ACC_R][MISS] = 0
	Total_core_cache_stats_breakdown[CONST_ACC_R][RESERVATION_FAIL] = 0
	Total_core_cache_stats_breakdown[CONST_ACC_R][SECTOR_MISS] = 0
	Total_core_cache_stats_breakdown[TEXTURE_ACC_R][HIT] = 0
	Total_core_cache_stats_breakdown[TEXTURE_ACC_R][HIT_RESERVED] = 0
	Total_core_cache_stats_breakdown[TEXTURE_ACC_R][MISS] = 0
	Total_core_cache_stats_breakdown[TEXTURE_ACC_R][RESERVATION_FAIL] = 0
	Total_core_cache_stats_breakdown[TEXTURE_ACC_R][SECTOR_MISS] = 0
	Total_core_cache_stats_breakdown[GLOBAL_ACC_W][HIT] = 0
	Total_core_cache_stats_breakdown[GLOBAL_ACC_W][HIT_RESERVED] = 0
	Total_core_cache_stats_breakdown[GLOBAL_ACC_W][MISS] = 32768
	Total_core_cache_stats_breakdown[GLOBAL_ACC_W][RESERVATION_FAIL] = 0
	Total_core_cache_stats_breakdown[GLOBAL_ACC_W][SECTOR_MISS] = 0
	Total_core_cache_stats_breakdown[LOCAL_ACC_W][HIT] = 0
	Total_core_cache_stats_breakdown[LOCAL_ACC_W][HIT_RESERVED] = 0
	Total_core_cache_stats_breakdown[LOCAL_ACC_W][MISS] = 0
	Total_core_cache_stats_breakdown[LOCAL_ACC_W][RESERVATION_FAIL] = 0
	Total_core_cache_stats_breakdown[LOCAL_ACC_W][SECTOR_MISS] = 0
	Total_core_cache_stats_breakdown[L1_WRBK_ACC][HIT] = 0
	Total_core_cache_stats_breakdown[L1_WRBK_ACC][HIT_RESERVED] = 0
	Total_core_cache_stats_breakdown[L1_WRBK_ACC][MISS] = 0
	Total_core_cache_stats_breakdown[L1_WRBK_ACC][RESERVATION_FAIL] = 0
	Total_core_cache_stats_breakdown[L1_WRBK_ACC][SECTOR_MISS] = 0
	Total_core_cache_stats_breakdown[L2_WRBK_ACC][HIT] = 0
	Total_core_cache_stats_breakdown[L2_WRBK_ACC][HIT_RESERVED] = 0
	Total_core_cache_stats_breakdown[L2_WRBK_ACC][MISS] = 0
	Total_core_cache_stats_breakdown[L2_WRBK_ACC][RESERVATION_FAIL] = 0
	Total_core_cache_stats_breakdown[L2_WRBK_ACC][SECTOR_MISS] = 0
	Total_core_cache_stats_breakdown[INST_ACC_R][HIT] = 0
	Total_core_cache_stats_breakdown[INST_ACC_R][HIT_RESERVED] = 0
	Total_core_cache_stats_breakdown[INST_ACC_R][MISS] = 0
	Total_core_cache_stats_breakdown[INST_ACC_R][RESERVATION_FAIL] = 0
	Total_core_cache_stats_breakdown[INST_ACC_R][SECTOR_MISS] = 0
	Total_core_cache_stats_breakdown[L1_WR_ALLOC_R][HIT] = 0
	Total_core_cache_stats_breakdown[L1_WR_ALLOC_R][HIT_RESERVED] = 0
	Total_core_cache_stats_breakdown[L1_WR_ALLOC_R][MISS] = 0
	Total_core_cache_stats_breakdown[L1_WR_ALLOC_R][RESERVATION_FAIL] = 0
	Total_core_cache_stats_breakdown[L1_WR_ALLOC_R][SECTOR_MISS] = 0
	Total_core_cache_stats_breakdown[L2_WR_ALLOC_R][HIT] = 0
	Total_core_cache_stats_breakdown[L2_WR_ALLOC_R][HIT_RESERVED] = 0
	Total_core_cache_stats_breakdown[L2_WR_ALLOC_R][MISS] = 0
	Total_core_cache_stats_breakdown[L2_WR_ALLOC_R][RESERVATION_FAIL] = 0
	Total_core_cache_stats_breakdown[L2_WR_ALLOC_R][SECTOR_MISS] = 0
	Total_core_cache_stats_breakdown[GLOBAL_ACC_R][TOTAL_ACCESS] = 409600
	Total_core_cache_stats_breakdown[GLOBAL_ACC_W][TOTAL_ACCESS] = 32768

Total_core_cache_fail_stats:
Shader 0 warp_id issue ditsribution:
warp_id:
0, 1, 2, 3, 4, 5, 6, 7, 8, 9, 10, 11, 12, 13, 14, 15, 16, 17, 18, 19, 20, 21, 22, 23, 24, 25, 26, 27, 28, 29, 30, 31, 
distro:
3663, 3663, 3663, 3663, 3663, 3663, 3663, 3663, 3663, 3663, 3663, 3663, 3663, 3663, 3663, 3663, 3663, 3663, 3663, 3663, 3663, 3663, 3663, 3663, 3663, 3663, 3663, 3663, 3663, 3663, 3663, 3663, 
gpgpu_n_tot_thrd_icount = 30007296
gpgpu_n_tot_w_icount = 937728
gpgpu_n_stall_shd_mem = 245760
gpgpu_n_mem_read_local = 0
gpgpu_n_mem_write_local = 0
gpgpu_n_mem_read_global = 374071
gpgpu_n_mem_write_global = 65536
gpgpu_n_mem_texture = 0
gpgpu_n_mem_const = 0
gpgpu_n_load_insn  = 3407872
gpgpu_n_store_insn = 262144
gpgpu_n_shmem_insn = 0
gpgpu_n_sstarr_insn = 0
gpgpu_n_tex_insn = 0
gpgpu_n_const_mem_insn = 0
gpgpu_n_param_mem_insn = 40960
gpgpu_n_shmem_bkconflict = 0
gpgpu_n_cache_bkconflict = 0
gpgpu_n_intrawarp_mshr_merge = 0
gpgpu_n_cmem_portconflict = 0
gpgpu_stall_shd_mem[c_mem][resource_stall] = 0
gpgpu_stall_shd_mem[s_mem][bk_conf] = 0
gpgpu_stall_shd_mem[gl_mem][resource_stall] = 245760
gpgpu_stall_shd_mem[gl_mem][coal_stall] = 0
gpgpu_stall_shd_mem[gl_mem][data_port_stall] = 0
gpu_reg_bank_conflict_stalls = 0
Warp Occupancy Distribution:
Stall:5140	W0_Idle:58604	W0_Scoreboard:7655044	W1:0	W2:0	W3:0	W4:393216	W5:0	W6:0	W7:0	W8:0	W9:0	W10:0	W11:0	W12:0	W13:0	W14:0	W15:0	W16:0	W17:0	W18:0	W19:0	W20:0	W21:0	W22:0	W23:0	W24:0	W25:0	W26:0	W27:0	W28:0	W29:0	W30:0	W31:0	W32:544512
single_issue_nums: WS0:234432	WS1:234432	WS2:234432	WS3:234432	
dual_issue_nums: WS0:0	WS1:0	WS2:0	WS3:0	
traffic_breakdown_coretomem[GLOBAL_ACC_R] = 2992568 {8:374071,}
traffic_breakdown_coretomem[GLOBAL_ACC_W] = 1572864 {8:32768,40:32768,}
traffic_breakdown_memtocore[GLOBAL_ACC_R] = 14962840 {40:374071,}
traffic_breakdown_memtocore[GLOBAL_ACC_W] = 524288 {8:65536,}
maxmflatency = 1147 
max_icnt2mem_latency = 26 
maxmrqlatency = 373 
max_icnt2sh_latency = 23 
averagemflatency = 426 
avg_icnt2mem_latency = 21 
avg_mrq_latency = 11 
avg_icnt2sh_latency = 2 
mrq_lat_table:178099 	47107 	3278 	5034 	14543 	27528 	12388 	2695 	44 	0 	0 	0 	0 	0 	0 	0 	0 	0 	0 	0 	0 	0 	0 	0 	0 	0 	0 	0 	0 	0 	0 	0 	
dq_lat_table:0 	0 	0 	0 	0 	0 	0 	0 	0 	0 	0 	0 	0 	0 	0 	0 	0 	0 	0 	0 	0 	0 	0 	0 	0 	0 	0 	0 	0 	0 	0 	0 	
mf_lat_table:0 	0 	0 	0 	0 	0 	0 	167742 	136893 	134969 	3 	0 	0 	0 	0 	0 	0 	0 	0 	0 	0 	0 	0 	0 	0 	0 	0 	0 	0 	0 	0 	0 	
icnt2mem_lat_table:0 	32585 	183 	0 	406839 	0 	0 	0 	0 	0 	0 	0 	0 	0 	0 	0 	0 	0 	0 	0 	0 	0 	0 	0 	
icnt2sh_lat_table:0 	411769 	26371 	1429 	38 	0 	0 	0 	0 	0 	0 	0 	0 	0 	0 	0 	0 	0 	0 	0 	0 	0 	0 	0 	
mf_lat_pw_table:0 	0 	0 	0 	0 	0 	0 	15 	443 	86 	0 	0 	0 	0 	0 	0 	0 	0 	0 	0 	0 	0 	0 	0 	0 	0 	0 	0 	0 	0 	0 	0 	
maximum concurrent accesses to same row:
dram[0]:         4         4         8         4         8         5         6         4         8         8         8         6         4         5         5         5 
dram[1]:         4         4         8         5         6         6         8         8         8         8         8         7         6         8         6         5 
dram[2]:         4         4         8         5         8         7         7         6         8        11         7         7         6         4         7         8 
dram[3]:         3         4         7         4         5         8         6         7         8         8         9         6         7         4         5         8 
dram[4]:         3         4         4         5         4         7         8         8         8         8         6         4         6         6         7         6 
dram[5]:         4         4         4         4         5         7         7         6         8         8         8         7         4         5         7         7 
dram[6]:         4         4         5         4         7         8         6         7         8         8         6         5         8         6         6         5 
dram[7]:         4         4         4         5         5         7         7         7         8         8         5         8         7         7         5         7 
dram[8]:         4         4         8         8         8         8         5         5         8         8         8         8         6         6         4         5 
dram[9]:         4         4        10         4         4         7         4         5         8         8         8         8         8         5         4         4 
dram[10]:         4         4         4         4         7         6         5         6         8         8         6         4         6         8         6         4 
dram[11]:         4         4         4         5         7         4         4         4         8         8         8         6         6         7         8         4 
dram[12]:         4         4         6         4         8         5         4         7         8         8         4         5         6         6         4         6 
dram[13]:         4         4         4         8         7         6         7         4         8         8         6         6         7         6         5         7 
dram[14]:         4         4         7         7         8         7         4         5         8         8         7         7         7         5         6         7 
dram[15]:         4         3         4         4         5         4         4         5         8         8         7         4         4         4         4         4 
dram[16]:         4         4         3         4         4         5         6         8         8         8         5         6         4         4         7         7 
dram[17]:         4         4         7         5         6         6         8         5         8         9         7         8         5         6         5         6 
dram[18]:         4         4         5         3         6         4         4         4         8         8         5         6         7         4         8         5 
dram[19]:         4         6         4         5         5         5         5         5         8         8         8         5         8         5         6         6 
dram[20]:         4         4         4         8         5        10         4         7         8         8         8         5         5         7         5         8 
dram[21]:         4         4         8         7         5         7         7         7         8         8         4         4         7         8         7         6 
dram[22]:         4         4         5         8         4         7         5         6         8         8         8         8         5         5         4         8 
dram[23]:         4         4         4         8         4         4         4         4         8         8         6         5         5         8         6         4 
dram[24]:         4         4         4         6         6         6         6         4         8         8        10         8         5         7         6         4 
dram[25]:         4         4         5         7         6         6         5         5         8         8         9         4         6         4         7         5 
dram[26]:         4         4         7         4         5         7         6         7         9         8         7         7         7         8         7         7 
dram[27]:         3         3         4         4         4         4         8         6         8         8         8         4         4         5         8        10 
dram[28]:         3         4         6         4         8         5         8         8         8         8         8         8         4         5         6         6 
dram[29]:         4         4         6         4         6         4         5         6         8         8         5         4         6         6         7         6 
dram[30]:         4         3         5         6         5         5         7         7         8         8         5         5         4         7         4         4 
dram[31]:         4         4         8         5         8         5         8         4         8         8         7         8         8         7         6         8 
maximum service time to same row:
dram[0]:      6016      6108      7758      5920     11248      5882      7648      8879      5856      6116      8897      8544      5890      7009      8889      5942 
dram[1]:      5879      8971      5935      8020      9281      6382      6697      5883      6101      7928      8967      6486      6451      5916      7756      7398 
dram[2]:      7292      7014      6958      5930      8828      7361      6544      5912      8195      7540      5839      5896      8875     10411      8981      7351 
dram[3]:      7881      9651      9095     10005      7406      6496      6282      7437      5871     12745     10004      5844      7288      5912      5900      8106 
dram[4]:      5859      7118      8919      5886      5847      7442      7292      7382      8915      9421      7413      5863      9278      5882      7621      8298 
dram[5]:      6406      7695      5957      6733      5874      8697      5888      6198      9766      5851      5871      7210      6571      6619     11325      7064 
dram[6]:      5960      7929      6095      6004      5843      7489      8631      6776      6584      5967      5943      6464      6710      5957      6748      5950 
dram[7]:      5855      6740      8862      7474      5859      5957      5836     11271      5976      6740      6474      7444     10570      6383      5839      8445 
dram[8]:      8258      6789      6761      5875      7398      8885      5874      5923      5908      8148      6141      7482      5919      5839      9581      6707 
dram[9]:      8839      5889      9897      6694      5912      7686      8508      7560      6784     10839      6764      6942      7322      6017      7229      5860 
dram[10]:      5960      7742      6435      6202      8150      6869      8965      7425      7803      6590      5844      6222      7550      8591      7481      5897 
dram[11]:      6004      6083      8910      5871      7485     12266     13900      6658      9079      6270     11890      6679      8087      6187      7585      6299 
dram[12]:      6392      8120      8965      8953      8122      6088      7422      7932      5928     11843      7457      9460     10774      6715      6026      5874 
dram[13]:      5914      7752     12579      8546      7913      5904      6844      6435      7414      7097      5850      6430      9355      6015     10823      5960 
dram[14]:      7474      5927      5993      7401      6235      6838     10209      5936      8514      7545      6252      6649      5953      5903      5892      6076 
dram[15]:      6358     10668      9031      8175      6745      5936      5843      5896      9019      8810      7489      6664      5963      6848      5878      5899 
dram[16]:      6212      9227      5879      7220     10644      9108      6615     10203      5934      8355      5863      6749      6531      6186      7402      7331 
dram[17]:      7217      7437      5916      5922     10370      7728      5864      6109      5895      5899      7501      5926      5852      5985      5944      7318 
dram[18]:      6566      7381      5926      9577      6817      6726     10634     16119      5886      5919      6287      9220      5884      5949      9039      7748 
dram[19]:     12853      6511      8603      9026      5840      7210      8669      7032      8795      7919      6375      5896      9336      5900     10600      6602 
dram[20]:      8979      7154      5944      7381      7456      9090      7135      7576      5968      5968      9286      7289      7393      5965      7217      7104 
dram[21]:      5864     11994      6428      5847      5851      7712      5931      8921      5892      7424      7442      5878      5902      8373      6949      5839 
dram[22]:      8991      7206      7302     10104      5843      6964      5839      7808      7493      7478     10589      5836      5862      5977      5860      7604 
dram[23]:      9116      9115      5844      6698      6593     10078      7709      6551      6892      8216     12882      7060      5890      6425      7350      5852 
dram[24]:      5933      7374      6438      7158      5860      7276      7144      6584      7648      5888     13022      8799      6382      6860      8978      5899 
dram[25]:      7510      7892      7584      6903      7783      5931      6685      9817      8675      5887      7618      6284      5847      8724      6155      5922 
dram[26]:      8080      8404      9119     10881      9354      7374      9075      8714      6941      5886      5922      7265      9272      9393      6800      6214 
dram[27]:      7446      9257      5860      8470      7612      7273      8078      8690      6880      5927      8674      5928      5881     14626      6990      9213 
dram[28]:      7521      6389      7446      7028     11116      7176      6747      6772      9875      7498      5848      5878      5866      7068      8515      6002 
dram[29]:      5862      5969      7731      7671      8571      8145      8483      5988     11757      5875      6574      8702      5949      5945      9903      6214 
dram[30]:      5980     10015      6454     13034     11321      5919      5899      5866      6061      5915      5886      6822      5843      7365      7541      6741 
dram[31]:      7391      9746      6095      8327      5875      5894      5879      7497      5897      7104      9079      5864      5920      5939      7186      8986 
average row accesses per activate:
dram[0]:  1.130802  1.197995  1.214286  1.192547  1.315000  1.204724  1.192623  1.178357  1.254167  1.288684  1.195402  1.220000  1.161580  1.204499  1.161702  1.154135 
dram[1]:  1.174004  1.192575  1.278515  1.206349  1.212724  1.218391  1.280576  1.218684  1.264271  1.287982  1.246120  1.228216  1.166976  1.238307  1.217204  1.198364 
dram[2]:  1.192308  1.208333  1.219731  1.216450  1.190965  1.174168  1.151402  1.205534  1.241228  1.254005  1.190570  1.213115  1.229581  1.203125  1.188000  1.187500 
dram[3]:  1.170616  1.203085  1.169492  1.207289  1.166052  1.250620  1.219207  1.162978  1.307018  1.308756  1.232877  1.173832  1.182390  1.205817  1.192547  1.160243 
dram[4]:  1.207547  1.154013  1.156989  1.199105  1.191398  1.184426  1.226453  1.222472  1.262693  1.231733  1.195312  1.174775  1.180294  1.182163  1.193798  1.191837 
dram[5]:  1.171492  1.156177  1.174168  1.196388  1.223427  1.166038  1.220339  1.278689  1.267857  1.239437  1.214000  1.143824  1.190171  1.157795  1.192843  1.176938 
dram[6]:  1.175115  1.187817  1.199052  1.173653  1.202206  1.309278  1.188349  1.202586  1.310345  1.264271  1.226908  1.166667  1.314286  1.211462  1.205240  1.170093 
dram[7]:  1.207921  1.181818  1.153257  1.168932  1.186441  1.225933  1.205882  1.269521  1.314010  1.280000  1.174905  1.225941  1.275434  1.214022  1.230435  1.221739 
dram[8]:  1.192893  1.186147  1.252475  1.166008  1.195358  1.252427  1.198413  1.320099  1.261411  1.236364  1.206287  1.260771  1.197452  1.210204  1.201663  1.250575 
dram[9]:  1.187935  1.162393  1.257895  1.144424  1.137746  1.167702  1.226415  1.270531  1.278161  1.207392  1.226908  1.207317  1.212054  1.178138  1.181996  1.117547 
dram[10]:  1.145558  1.170163  1.179856  1.151163  1.211454  1.223176  1.189516  1.230444  1.245283  1.322034  1.184382  1.160920  1.229885  1.210870  1.202559  1.200864 
dram[11]:  1.125000  1.125000  1.256831  1.168317  1.203320  1.181628  1.185654  1.213043  1.319149  1.258278  1.219828  1.160542  1.197872  1.211499  1.161870  1.200855 
dram[12]:  1.218009  1.218997  1.203704  1.184100  1.197425  1.155470  1.175758  1.151874  1.216891  1.230143  1.161654  1.241706  1.219457  1.217295  1.220418  1.202586 
dram[13]:  1.189320  1.141649  1.197150  1.208431  1.160396  1.188755  1.179283  1.162978  1.224576  1.294392  1.172932  1.186508  1.291553  1.190083  1.204762  1.226782 
dram[14]:  1.164384  1.156576  1.228972  1.232506  1.200000  1.225532  1.144852  1.222904  1.284672  1.263830  1.239669  1.213710  1.173358  1.196356  1.169173  1.170018 
dram[15]:  1.156118  1.161446  1.168182  1.187905  1.165049  1.172962  1.160813  1.149013  1.265306  1.268623  1.148936  1.213333  1.117550  1.146903  1.159363  1.123333 
dram[16]:  1.191489  1.206107  1.181609  1.147475  1.183432  1.176724  1.262136  1.234450  1.218254  1.221095  1.132463  1.224771  1.177515  1.224490  1.222222  1.223022 
dram[17]:  1.166667  1.175644  1.219638  1.203390  1.179916  1.218962  1.210744  1.186722  1.213861  1.201550  1.170370  1.214751  1.212982  1.208092  1.167939  1.202734 
dram[18]:  1.195294  1.156733  1.236364  1.268156  1.154676  1.194215  1.177966  1.151631  1.209648  1.186813  1.176238  1.196078  1.157996  1.184322  1.193059  1.182573 
dram[19]:  1.181586  1.175732  1.142292  1.194915  1.182156  1.237251  1.186235  1.223176  1.226000  1.240404  1.189293  1.164510  1.202429  1.179816  1.198198  1.230126 
dram[20]:  1.123232  1.258856  1.180266  1.201835  1.206897  1.201663  1.184584  1.197452  1.243129  1.226306  1.227557  1.210425  1.189899  1.221258  1.195876  1.147059 
dram[21]:  1.154684  1.227882  1.161290  1.180467  1.258581  1.224000  1.237903  1.220126  1.235644  1.202312  1.191147  1.183908  1.261792  1.163462  1.200772  1.201681 
dram[22]:  1.185714  1.170068  1.208791  1.304582  1.160714  1.190283  1.171206  1.188525  1.316708  1.271845  1.272277  1.200000  1.203523  1.193227  1.179167  1.182979 
dram[23]:  1.181373  1.209877  1.181818  1.247619  1.151291  1.213531  1.192913  1.196347  1.246050  1.238710  1.274752  1.196464  1.174721  1.217778  1.206731  1.223214 
dram[24]:  1.204244  1.228070  1.184874  1.222494  1.165154  1.150943  1.231461  1.193833  1.331695  1.220532  1.207792  1.213483  1.177866  1.212121  1.241706  1.154676 
dram[25]:  1.241758  1.132780  1.185185  1.236641  1.165085  1.248322  1.276808  1.198257  1.267894  1.200772  1.259259  1.181070  1.144366  1.225119  1.220779  1.163569 
dram[26]:  1.170960  1.185366  1.201754  1.198178  1.218143  1.214128  1.215962  1.275362  1.182836  1.216535  1.290323  1.260970  1.216401  1.220339  1.204396  1.159213 
dram[27]:  1.179487  1.150115  1.153082  1.164502  1.141717  1.142857  1.232227  1.241206  1.221557  1.225806  1.230769  1.150870  1.158082  1.124481  1.179916  1.205882 
dram[28]:  1.155925  1.144796  1.228723  1.224490  1.202586  1.185031  1.236607  1.203285  1.240618  1.291566  1.146384  1.178782  1.176113  1.172414  1.182342  1.217391 
dram[29]:  1.160440  1.137405  1.197183  1.157258  1.195266  1.156187  1.198330  1.168582  1.252212  1.261745  1.139394  1.139579  1.161100  1.193750  1.211864  1.190019 
dram[30]:  1.194245  1.211957  1.139623  1.180527  1.146474  1.189723  1.148551  1.181070  1.313580  1.228000  1.167286  1.167315  1.198135  1.202869  1.201735  1.215962 
dram[31]:  1.183575  1.231707  1.216783  1.162264  1.189723  1.173913  1.183594  1.193059  1.286344  1.239766  1.203922  1.191919  1.160164  1.210000  1.218487  1.258312 
average row locality = 290716/242158 = 1.200522
number of total memory accesses made:
dram[0]:         0         0         0         0         0         0         0         0         0         0         0         0         0         0         0         0 
dram[1]:         0         0         0         0         0         0         0         0         0         0         0         0         0         0         0         0 
dram[2]:         0         0         0         0         0         0         0         0         0         0         0         0         0         0         0         0 
dram[3]:         0         0         0         0         0         0         0         0         0         0         0         0         0         0         0         0 
dram[4]:         0         0         0         0         0         0         0         0         0         0         0         0         0         0         0         0 
dram[5]:         0         0         0         0         0         0         0         0         0         0         0         0         0         0         0         0 
dram[6]:         0         0         0         0         0         0         0         0         0         0         0         0         0         0         0         0 
dram[7]:         0         0         0         0         0         0         0         0         0         0         0         0         0         0         0         0 
dram[8]:         0         0         0         0         0         0         0         0         0         0         0         0         0         0         0         0 
dram[9]:         0         0         0         0         0         0         0         0         0         0         0         0         0         0         0         0 
dram[10]:         0         0         0         0         0         0         0         0         0         0         0         0         0         0         0         0 
dram[11]:         0         0         0         0         0         0         0         0         0         0         0         0         0         0         0         0 
dram[12]:         0         0         0         0         0         0         0         0         0         0         0         0         0         0         0         0 
dram[13]:         0         0         0         0         0         0         0         0         0         0         0         0         0         0         0         0 
dram[14]:         0         0         0         0         0         0         0         0         0         0         0         0         0         0         0         0 
dram[15]:         0         0         0         0         0         0         0         0         0         0         0         0         0         0         0         0 
dram[16]:         0         0         0         0         0         0         0         0         0         0         0         0         0         0         0         0 
dram[17]:         0         0         0         0         0         0         0         0         0         0         0         0         0         0         0         0 
dram[18]:         0         0         0         0         0         0         0         0         0         0         0         0         0         0         0         0 
dram[19]:         0         0         0         0         0         0         0         0         0         0         0         0         0         0         0         0 
dram[20]:         0         0         0         0         0         0         0         0         0         0         0         0         0         0         0         0 
dram[21]:         0         0         0         0         0         0         0         0         0         0         0         0         0         0         0         0 
dram[22]:         0         0         0         0         0         0         0         0         0         0         0         0         0         0         0         0 
dram[23]:         0         0         0         0         0         0         0         0         0         0         0         0         0         0         0         0 
dram[24]:         0         0         0         0         0         0         0         0         0         0         0         0         0         0         0         0 
dram[25]:         0         0         0         0         0         0         0         0         0         0         0         0         0         0         0         0 
dram[26]:         0         0         0         0         0         0         0         0         0         0         0         0         0         0         0         0 
dram[27]:         0         0         0         0         0         0         0         0         0         0         0         0         0         0         0         0 
dram[28]:         0         0         0         0         0         0         0         0         0         0         0         0         0         0         0         0 
dram[29]:         0         0         0         0         0         0         0         0         0         0         0         0         0         0         0         0 
dram[30]:         0         0         0         0         0         0         0         0         0         0         0         0         0         0         0         0 
dram[31]:         0         0         0         0         0         0         0         0         0         0         0         0         0         0         0         0 
total accesses: 0
min_bank_accesses = 0!
min_chip_accesses = 0!
number of total read accesses:
dram[0]:       536       478       544       576       526       612       582       588       522       478       544       470       576       518       482       550 
dram[1]:       560       514       482       532       610       636       534       574       518       488       482       512       558       486       502       522 
dram[2]:       496       464       544       562       580       600       616       610       486       468       526       512       486       472       530       506 
dram[3]:       494       468       552       530       632       504       584       578       516       488       460       548       492       470       512       508 
dram[4]:       512       532       538       536       554       578       612       544       492       510       532       572       490       552       552       520 
dram[5]:       526       496       600       530       564       618       576       468       488       536       528       596       486       538       536       528 
dram[6]:       510       468       506       588       654       508       612       558       452       518       530       522       434       542       488       562 
dram[7]:       488       494       602       602       630       624       574       504       464       464       538       506       444       586       502       498 
dram[8]:       470       548       506       590       618       516       604       532       528       532       534       476       490       522       514       480 
dram[9]:       512       544       478       626       636       564       520       526       476       508       532       514       470       510       540       592 
dram[10]:       606       502       492       594       550       570       590       582       514       466       466       526       464       486       500       492 
dram[11]:       558       576       460       590       580       566       562       558       478       490       486       520       492       520       582       498 
dram[12]:       514       462       520       566       558       602       582       584       554       524       538       444       468       482       462       494 
dram[13]:       490       540       504       516       586       592       592       578       498       474       544       518       402       508       442       504 
dram[14]:       510       554       526       546       594       576       656       598       448       514       520       522       572       524       556       576 
dram[15]:       548       482       514       550       600       590       628       640       478       482       568       466       604       580       518       610 
dram[16]:       504       474       514       568       600       546       520       516       534       522       528       454       524       470       530       446 
dram[17]:       518       502       472       568       564       540       586       572       532       540       552       480       528       554       548       464 
dram[18]:       508       524       544       454       642       578       556       600       572       568       514       530       530       490       486       506 
dram[19]:       462       562       578       564       636       558       586       570       532       534       542       550       524       572       468       524 
dram[20]:       556       462       622       524       560       578       584       564       508       554       508       548       516       492       516       560 
dram[21]:       530       458       540       556       550       612       614       582       544       544       512       538       460       534       558       508 
dram[22]:       498       516       550       484       650       588       602       580       448       444       434       520       544       528       502       492 
dram[23]:       482       490       572       524       624       574       606       524       472       496       436       530       560       478       438       484 
dram[24]:       454       490       564       500       642       610       548       542       462       562       478       460       526       490       460       578 
dram[25]:       452       546       576       486       614       558       512       550       540       542       464       494       582       446       500       562 
dram[26]:       500       486       548       526       564       550       518       528       554       538       480       466       462       434       484       584 
dram[27]:       506       498       580       538       572       576       520       494       532       528       432       516       582       472       500       510 
dram[28]:       556       506       462       540       558       570       554       586       482       456       570       520       512       540       552       496 
dram[29]:       528       596       510       574       606       570       574       610       486       484       484       516       520       504       508       556 
dram[30]:       498       446       604       582       634       602       634       574       452       534       548       520       444       518       490       454 
dram[31]:       490       404       522       616       602       594       606       550       504       556       534       510       494       536       516       428 
total dram reads = 271860
bank skew: 656/402 = 1.63
chip skew: 8858/8222 = 1.08
number of total write accesses:
dram[0]:         0         0         0         0         0         0         0         0       312       310       277       293       233       224       172       182 
dram[1]:         0         0         0         0         0         0         0         0       312       296       267       259       209       214       202       193 
dram[2]:         0         0         0         0         0         0         0         0       304       287       285       292       238       216       196       189 
dram[3]:         0         0         0         0         0         0         0         0       310       301       288       283       229       212       168       162 
dram[4]:         0         0         0         0         0         0         0         0       298       287       273       260       233       221       205       209 
dram[5]:         0         0         0         0         0         0         0         0       301       301       233       260       219       224       211       209 
dram[6]:         0         0         0         0         0         0         0         0       295       289       252       277       249       258       210       202 
dram[7]:         0         0         0         0         0         0         0         0       301       304       273       264       225       241       175       174 
dram[8]:         0         0         0         0         0         0         0         0       308       306       279       288       265       255       204       211 
dram[9]:         0         0         0         0         0         0         0         0       306       303       262       263       227       219       194       189 
dram[10]:         0         0         0         0         0         0         0         0       289       302       268       276       239       241       204       200 
dram[11]:         0         0         0         0         0         0         0         0       294       305       251       272       242       235       230       243 
dram[12]:         0         0         0         0         0         0         0         0       308       299       260       259       210       198       178       178 
dram[13]:         0         0         0         0         0         0         0         0       302       302       267       254       224       208       187       196 
dram[14]:         0         0         0         0         0         0         0         0       318       304       259       284       235       204       199       204 
dram[15]:         0         0         0         0         0         0         0         0       287       297       246       238       201       194       169       167 
dram[16]:         0         0         0         0         0         0         0         0       306       291       258       253       249       245       221       214 
dram[17]:         0         0         0         0         0         0         0         0       313       297       281       275       210       217       191       172 
dram[18]:         0         0         0         0         0         0         0         0       313       300       262       280       210       213       188       189 
dram[19]:         0         0         0         0         0         0         0         0       303       295       260       265       235       242       191       195 
dram[20]:         0         0         0         0         0         0         0         0       304       299       296       287       256       254       203       195 
dram[21]:         0         0         0         0         0         0         0         0       309       294       259       259       249       240       242       234 
dram[22]:         0         0         0         0         0         0         0         0       293       296       259       246       198       202       178       169 
dram[23]:         0         0         0         0         0         0         0         0       301       297       263       265       211       197       176       171 
dram[24]:         0         0         0         0         0         0         0         0       309       310       284       280       225       219       192       187 
dram[25]:         0         0         0         0         0         0         0         0       307       306       276       277       223       217       188       199 
dram[26]:         0         0         0         0         0         0         0         0       304       297       295       280       252       234       184       203 
dram[27]:         0         0         0         0         0         0         0         0       297       304       270       266       220       213       182       176 
dram[28]:         0         0         0         0         0         0         0         0       309       306       271       256       236       240       203       210 
dram[29]:         0         0         0         0         0         0         0         0       307       304       252       251       213       213       193       195 
dram[30]:         0         0         0         0         0         0         0         0       292       306       260       251       207       201       171       187 
dram[31]:         0         0         0         0         0         0         0         0       300       304       295       289       233       226       220       215 
total dram writes = 63382
min_bank_accesses = 0!
chip skew: 2116/1799 = 1.18
average mf latency per bank:
[...]
issued_two_Eff = 0.082036 
queue_avg = 0.371431 


dram_util_bins: 0 0 0 0 0 0 0 0 0 0
dram_eff_bins: 0 0 0 0 0 0 0 0 0 0
mrqq: max=19 avg=0.371431
Memory Partition 28: 
Cache L2_bank_056:
MSHR contents

Cache L2_bank_057:
MSHR contents

In Dram Latency Queue (total = 0): 
DRAM[28]: 16 bks, busW=16 BL=2 CL=12, tRRD=3 tCCD=1, tRCD=12 tRAS=28 tRP=12 tRC=40
n_cmd=208160 n_nop=184404 n_act=7561 n_pre=7545 n_ref_event=0 n_req=9049 n_rd=8460 n_rd_L2_A=0 n_write=0 n_wr_bk=2031 bw_util=0.0504
n_activity=111639 dram_eff=0.09397
bk0: 556a 193582i bk1: 506a 194691i bk2: 462a 196515i bk3: 540a 194605i bk4: 558a 194016i bk5: 570a 193001i bk6: 554a 194884i bk7: 586a 193024i bk8: 482a 193425i bk9: 456a 195156i bk10: 570a 190494i bk11: 520a 191879i bk12: 512a 192676i bk13: 540a 191753i bk14: 552a 191844i bk15: 496a 193887i 

------------------------------------------------------------------------

Row_Buffer_Locality = 0.164438
Row_Buffer_Locality_read = 0.142671
Row_Buffer_Locality_write = 0.477080
Bank_Level_Parallism = 2.840291
Bank_Level_Parallism_Col = 1.786971
Bank_Level_Parallism_Ready = 1.074349
write_to_read_ratio_blp_rw_average = 0.081933
GrpLevelPara = 1.545485 

BW Util details:
bwutil = 0.050399 
total_CMD = 208160 
util_bw = 10491 
Wasted_Col = 48701 
Wasted_Row = 26777 
Idle = 122191 

BW Util Bottlenecks: 
RCDc_limit = 74153 
RCDWRc_limit = 2681 
WTRc_limit = 8872 
RTWc_limit = 2807 
CCDLc_limit = 4405 
rwq = 0 
CCDLc_limit_alone = 3583 
WTRc_limit_alone = 8134 
RTWc_limit_alone = 2723 

Commands details: 
total_CMD = 208160 
n_nop = 184404 
Read = 8460 
Write = 0 
L2_Alloc = 0 
L2_WB = 2031 
n_act = 7561 
n_pre = 7545 
n_ref = 0 
n_req = 9049 
total_req = 10491 

Dual Bus Interface Util: 
issued_total_row = 15106 
issued_total_col = 10491 
Row_Bus_Util =  0.072569 
CoL_Bus_Util = 0.050399 
Either_Row_CoL_Bus_Util = 0.114124 
Issued_on_Two_Bus_Simul_Util = 0.008844 
issued_two_Eff = 0.077496 
queue_avg = 0.333090 


dram_util_bins: 0 0 0 0 0 0 0 0 0 0
dram_eff_bins: 0 0 0 0 0 0 0 0 0 0
mrqq: max=17 avg=0.33309
Memory Partition 29: 
Cache L2_bank_058:
MSHR contents

Cache L2_bank_059:
MSHR contents

In Dram Latency Queue (total = 0): 
DRAM[29]: 16 bks, busW=16 BL=2 CL=12, tRRD=3 tCCD=1, tRCD=12 tRAS=28 tRP=12 tRC=40
n_cmd=208160 n_nop=183914 n_act=7801 n_pre=7785 n_ref_event=0 n_req=9214 n_rd=8626 n_rd_L2_A=0 n_write=0 n_wr_bk=1928 bw_util=0.0507
n_activity=113259 dram_eff=0.09318
bk0: 528a 194429i bk1: 596a 191965i bk2: 510a 195249i bk3: 574a 193029i bk4: 606a 192594i bk5: 570a 192669i bk6: 574a 193311i bk7: 610a 191769i bk8: 486a 193692i bk9: 484a 193917i bk10: 484a 192750i bk11: 516a 191709i bk12: 520a 192197i bk13: 504a 192524i bk14: 508a 193155i bk15: 556a 191731i 

------------------------------------------------------------------------

Row_Buffer_Locality = 0.153354
Row_Buffer_Locality_read = 0.136912
Row_Buffer_Locality_write = 0.394558
Bank_Level_Parallism = 2.892058
Bank_Level_Parallism_Col = 1.796811
Bank_Level_Parallism_Ready = 1.068126
write_to_read_ratio_blp_rw_average = 0.084966
GrpLevelPara = 1.552401 

BW Util details:
bwutil = 0.050701 
total_CMD = 208160 
util_bw = 10554 
Wasted_Col = 49551 
Wasted_Row = 27405 
Idle = 120650 

BW Util Bottlenecks: 
RCDc_limit = 75943 
RCDWRc_limit = 3079 
WTRc_limit = 9047 
RTWc_limit = 3423 
CCDLc_limit = 4299 
rwq = 0 
CCDLc_limit_alone = 3505 
WTRc_limit_alone = 8350 
RTWc_limit_alone = 3326 

Commands details: 
total_CMD = 208160 
n_nop = 183914 
Read = 8626 
Write = 0 
L2_Alloc = 0 
L2_WB = 1928 
n_act = 7801 
n_pre = 7785 
n_ref = 0 
n_req = 9214 
total_req = 10554 

Dual Bus Interface Util: 
issued_total_row = 15586 
issued_total_col = 10554 
Row_Bus_Util =  0.074875 
CoL_Bus_Util = 0.050701 
Either_Row_CoL_Bus_Util = 0.116478 
Issued_on_Two_Bus_Simul_Util = 0.009099 
issued_two_Eff = 0.078116 
queue_avg = 0.370249 


dram_util_bins: 0 0 0 0 0 0 0 0 0 0
dram_eff_bins: 0 0 0 0 0 0 0 0 0 0
mrqq: max=18 avg=0.370249
Memory Partition 30: 
Cache L2_bank_060:
MSHR contents

Cache L2_bank_061:
MSHR contents

In Dram Latency Queue (total = 0): 
DRAM[30]: 16 bks, busW=16 BL=2 CL=12, tRRD=3 tCCD=1, tRCD=12 tRAS=28 tRP=12 tRC=40
n_cmd=208160 n_nop=184302 n_act=7666 n_pre=7650 n_ref_event=0 n_req=9121 n_rd=8534 n_rd_L2_A=0 n_write=0 n_wr_bk=1875 bw_util=0.05
n_activity=110507 dram_eff=0.09419
bk0: 498a 195347i bk1: 446a 197058i bk2: 604a 191672i bk3: 582a 192590i bk4: 634a 190757i bk5: 602a 192262i bk6: 634a 190997i bk7: 574a 192846i bk8: 452a 195154i bk9: 534a 192384i bk10: 548a 190758i bk11: 520a 192118i bk12: 444a 194372i bk13: 518a 192795i bk14: 490a 193692i bk15: 454a 194777i 

------------------------------------------------------------------------

Row_Buffer_Locality = 0.159522
Row_Buffer_Locality_read = 0.142372
Row_Buffer_Locality_write = 0.408859
Bank_Level_Parallism = 2.929109
Bank_Level_Parallism_Col = 1.802754
Bank_Level_Parallism_Ready = 1.065808
write_to_read_ratio_blp_rw_average = 0.084582
GrpLevelPara = 1.548767 

BW Util details:
bwutil = 0.050005 
total_CMD = 208160 
util_bw = 10409 
Wasted_Col = 48564 
Wasted_Row = 26412 
Idle = 122775 

BW Util Bottlenecks: 
RCDc_limit = 74543 
RCDWRc_limit = 3013 
WTRc_limit = 9043 
RTWc_limit = 3340 
CCDLc_limit = 4371 
rwq = 0 
CCDLc_limit_alone = 3533 
WTRc_limit_alone = 8304 
RTWc_limit_alone = 3241 

Commands details: 
total_CMD = 208160 
n_nop = 184302 
Read = 8534 
Write = 0 
L2_Alloc = 0 
L2_WB = 1875 
n_act = 7666 
n_pre = 7650 
n_ref = 0 
n_req = 9121 
total_req = 10409 

Dual Bus Interface Util: 
issued_total_row = 15316 
issued_total_col = 10409 
Row_Bus_Util =  0.073578 
CoL_Bus_Util = 0.050005 
Either_Row_CoL_Bus_Util = 0.114614 
Issued_on_Two_Bus_Simul_Util = 0.008969 
issued_two_Eff = 0.078255 
queue_avg = 0.381591 


dram_util_bins: 0 0 0 0 0 0 0 0 0 0
dram_eff_bins: 0 0 0 0 0 0 0 0 0 0
mrqq: max=20 avg=0.381591
Memory Partition 31: 
Cache L2_bank_062:
MSHR contents

Cache L2_bank_063:
MSHR contents

In Dram Latency Queue (total = 0): 
DRAM[31]: 16 bks, busW=16 BL=2 CL=12, tRRD=3 tCCD=1, tRCD=12 tRAS=28 tRP=12 tRC=40
n_cmd=208160 n_nop=184520 n_act=7512 n_pre=7496 n_ref_event=0 n_req=9050 n_rd=8462 n_rd_L2_A=0 n_write=0 n_wr_bk=2082 bw_util=0.05065
n_activity=112938 dram_eff=0.09336
bk0: 490a 195651i bk1: 404a 198235i bk2: 522a 195138i bk3: 616a 192040i bk4: 602a 192682i bk5: 594a 192566i bk6: 606a 192411i bk7: 550a 194030i bk8: 504a 193844i bk9: 556a 191912i bk10: 534a 191958i bk11: 510a 192773i bk12: 494a 192519i bk13: 536a 192816i bk14: 516a 193416i bk15: 428a 196273i 

------------------------------------------------------------------------

Row_Buffer_Locality = 0.169945
Row_Buffer_Locality_read = 0.144883
Row_Buffer_Locality_write = 0.530612
Bank_Level_Parallism = 2.777444
Bank_Level_Parallism_Col = 1.757476
Bank_Level_Parallism_Ready = 1.067811
write_to_read_ratio_blp_rw_average = 0.080187
GrpLevelPara = 1.528381 

BW Util details:
bwutil = 0.050653 
total_CMD = 208160 
util_bw = 10544 
Wasted_Col = 49048 
Wasted_Row = 27303 
Idle = 121265 

BW Util Bottlenecks: 
RCDc_limit = 74177 
RCDWRc_limit = 2401 
WTRc_limit = 8362 
RTWc_limit = 2429 
CCDLc_limit = 4461 
rwq = 0 
CCDLc_limit_alone = 3709 
WTRc_limit_alone = 7676 
RTWc_limit_alone = 2363 

Commands details: 
total_CMD = 208160 
n_nop = 184520 
Read = 8462 
Write = 0 
L2_Alloc = 0 
L2_WB = 2082 
n_act = 7512 
n_pre = 7496 
n_ref = 0 
n_req = 9050 
total_req = 10544 

Dual Bus Interface Util: 
issued_total_row = 15008 
issued_total_col = 10544 
Row_Bus_Util =  0.072098 
CoL_Bus_Util = 0.050653 
Either_Row_CoL_Bus_Util = 0.113566 
Issued_on_Two_Bus_Simul_Util = 0.009185 
issued_two_Eff = 0.080880 
queue_avg = 0.335790 


dram_util_bins: 0 0 0 0 0 0 0 0 0 0
dram_eff_bins: 0 0 0 0 0 0 0 0 0 0
mrqq: max=14 avg=0.33579

========= L2 cache stats =========
L2_cache_bank[0]: Access = 6951, Miss = 4824, Miss_rate = 0.694, Pending_hits = 0, Reservation_fails = 0
L2_cache_bank[1]: Access = 6893, Miss = 4759, Miss_rate = 0.690, Pending_hits = 0, Reservation_fails = 0
L2_cache_bank[2]: Access = 6865, Miss = 4745, Miss_rate = 0.691, Pending_hits = 0, Reservation_fails = 0
L2_cache_bank[3]: Access = 6914, Miss = 4772, Miss_rate = 0.690, Pending_hits = 0, Reservation_fails = 0
L2_cache_bank[4]: Access = 6865, Miss = 4744, Miss_rate = 0.691, Pending_hits = 0, Reservation_fails = 0
L2_cache_bank[5]: Access = 6790, Miss = 4715, Miss_rate = 0.694, Pending_hits = 0, Reservation_fails = 0
L2_cache_bank[6]: Access = 6884, Miss = 4711, Miss_rate = 0.684, Pending_hits = 0, Reservation_fails = 0
L2_cache_bank[7]: Access = 6713, Miss = 4611, Miss_rate = 0.687, Pending_hits = 0, Reservation_fails = 0
L2_cache_bank[8]: Access = 6947, Miss = 4789, Miss_rate = 0.689, Pending_hits = 0, Reservation_fails = 0
L2_cache_bank[9]: Access = 6987, Miss = 4879, Miss_rate = 0.698, Pending_hits = 0, Reservation_fails = 0
L2_cache_bank[10]: Access = 6956, Miss = 4813, Miss_rate = 0.692, Pending_hits = 0, Reservation_fails = 0
L2_cache_bank[11]: Access = 6904, Miss = 4791, Miss_rate = 0.694, Pending_hits = 0, Reservation_fails = 0
L2_cache_bank[12]: Access = 6812, Miss = 4682, Miss_rate = 0.687, Pending_hits = 0, Reservation_fails = 0
L2_cache_bank[13]: Access = 6864, Miss = 4790, Miss_rate = 0.698, Pending_hits = 0, Reservation_fails = 0
L2_cache_bank[14]: Access = 6849, Miss = 4734, Miss_rate = 0.691, Pending_hits = 0, Reservation_fails = 0
L2_cache_bank[15]: Access = 6939, Miss = 4774, Miss_rate = 0.688, Pending_hits = 0, Reservation_fails = 0
L2_cache_bank[16]: Access = 6877, Miss = 4762, Miss_rate = 0.692, Pending_hits = 0, Reservation_fails = 0
L2_cache_bank[17]: Access = 6805, Miss = 4686, Miss_rate = 0.689, Pending_hits = 0, Reservation_fails = 0
L2_cache_bank[18]: Access = 6768, Miss = 4670, Miss_rate = 0.690, Pending_hits = 0, Reservation_fails = 0
L2_cache_bank[19]: Access = 7059, Miss = 4874, Miss_rate = 0.690, Pending_hits = 0, Reservation_fails = 0
L2_cache_bank[20]: Access = 6778, Miss = 4678, Miss_rate = 0.690, Pending_hits = 0, Reservation_fails = 0
L2_cache_bank[21]: Access = 6894, Miss = 4677, Miss_rate = 0.678, Pending_hits = 0, Reservation_fails = 0
L2_cache_bank[22]: Access = 6805, Miss = 4719, Miss_rate = 0.693, Pending_hits = 0, Reservation_fails = 0
L2_cache_bank[23]: Access = 6924, Miss = 4809, Miss_rate = 0.695, Pending_hits = 0, Reservation_fails = 0
L2_cache_bank[24]: Access = 6795, Miss = 4689, Miss_rate = 0.690, Pending_hits = 0, Reservation_fails = 0
L2_cache_bank[25]: Access = 6766, Miss = 4687, Miss_rate = 0.693, Pending_hits = 0, Reservation_fails = 0
L2_cache_bank[26]: Access = 6645, Miss = 4529, Miss_rate = 0.682, Pending_hits = 0, Reservation_fails = 0
L2_cache_bank[27]: Access = 6812, Miss = 4761, Miss_rate = 0.699, Pending_hits = 0, Reservation_fails = 0
L2_cache_bank[28]: Access = 7014, Miss = 4885, Miss_rate = 0.696, Pending_hits = 0, Reservation_fails = 0
L2_cache_bank[29]: Access = 7070, Miss = 4938, Miss_rate = 0.698, Pending_hits = 2, Reservation_fails = 0
L2_cache_bank[30]: Access = 7187, Miss = 4988, Miss_rate = 0.694, Pending_hits = 0, Reservation_fails = 0
L2_cache_bank[31]: Access = 7055, Miss = 4921, Miss_rate = 0.698, Pending_hits = 0, Reservation_fails = 0
L2_cache_bank[32]: Access = 6887, Miss = 4738, Miss_rate = 0.688, Pending_hits = 0, Reservation_fails = 0
L2_cache_bank[33]: Access = 6599, Miss = 4486, Miss_rate = 0.680, Pending_hits = 0, Reservation_fails = 0
L2_cache_bank[34]: Access = 6935, Miss = 4796, Miss_rate = 0.692, Pending_hits = 0, Reservation_fails = 0
L2_cache_bank[35]: Access = 6807, Miss = 4724, Miss_rate = 0.694, Pending_hits = 0, Reservation_fails = 0
L2_cache_bank[36]: Access = 6977, Miss = 4847, Miss_rate = 0.695, Pending_hits = 0, Reservation_fails = 0
L2_cache_bank[37]: Access = 6849, Miss = 4737, Miss_rate = 0.692, Pending_hits = 0, Reservation_fails = 0
L2_cache_bank[38]: Access = 6961, Miss = 4845, Miss_rate = 0.696, Pending_hits = 0, Reservation_fails = 0
L2_cache_bank[39]: Access = 7084, Miss = 4938, Miss_rate = 0.697, Pending_hits = 0, Reservation_fails = 0
L2_cache_bank[40]: Access = 7041, Miss = 4879, Miss_rate = 0.693, Pending_hits = 0, Reservation_fails = 0
L2_cache_bank[41]: Access = 6879, Miss = 4775, Miss_rate = 0.694, Pending_hits = 0, Reservation_fails = 0
L2_cache_bank[42]: Access = 6945, Miss = 4817, Miss_rate = 0.694, Pending_hits = 0, Reservation_fails = 0
L2_cache_bank[43]: Access = 6978, Miss = 4853, Miss_rate = 0.695, Pending_hits = 0, Reservation_fails = 0
L2_cache_bank[44]: Access = 6818, Miss = 4709, Miss_rate = 0.691, Pending_hits = 0, Reservation_fails = 0
L2_cache_bank[45]: Access = 6680, Miss = 4663, Miss_rate = 0.698, Pending_hits = 0, Reservation_fails = 0
L2_cache_bank[46]: Access = 6810, Miss = 4700, Miss_rate = 0.690, Pending_hits = 2, Reservation_fails = 0
L2_cache_bank[47]: Access = 6673, Miss = 4608, Miss_rate = 0.691, Pending_hits = 0, Reservation_fails = 0
L2_cache_bank[48]: Access = 6735, Miss = 4633, Miss_rate = 0.688, Pending_hits = 0, Reservation_fails = 0
L2_cache_bank[49]: Access = 6887, Miss = 4693, Miss_rate = 0.681, Pending_hits = 0, Reservation_fails = 0
L2_cache_bank[50]: Access = 6870, Miss = 4728, Miss_rate = 0.688, Pending_hits = 0, Reservation_fails = 0
L2_cache_bank[51]: Access = 6793, Miss = 4675, Miss_rate = 0.688, Pending_hits = 0, Reservation_fails = 0
L2_cache_bank[52]: Access = 6722, Miss = 4531, Miss_rate = 0.674, Pending_hits = 0, Reservation_fails = 0
L2_cache_bank[53]: Access = 6723, Miss = 4608, Miss_rate = 0.685, Pending_hits = 0, Reservation_fails = 0
L2_cache_bank[54]: Access = 6789, Miss = 4752, Miss_rate = 0.700, Pending_hits = 0, Reservation_fails = 0
L2_cache_bank[55]: Access = 6726, Miss = 4628, Miss_rate = 0.688, Pending_hits = 1, Reservation_fails = 0
L2_cache_bank[56]: Access = 6858, Miss = 4781, Miss_rate = 0.697, Pending_hits = 0, Reservation_fails = 0
L2_cache_bank[57]: Access = 6806, Miss = 4722, Miss_rate = 0.694, Pending_hits = 0, Reservation_fails = 0
L2_cache_bank[58]: Access = 6821, Miss = 4710, Miss_rate = 0.691, Pending_hits = 0, Reservation_fails = 0
L2_cache_bank[59]: Access = 7072, Miss = 4939, Miss_rate = 0.698, Pending_hits = 0, Reservation_fails = 0
L2_cache_bank[60]: Access = 6948, Miss = 4788, Miss_rate = 0.689, Pending_hits = 0, Reservation_fails = 0
L2_cache_bank[61]: Access = 6820, Miss = 4760, Miss_rate = 0.698, Pending_hits = 0, Reservation_fails = 0
L2_cache_bank[62]: Access = 6912, Miss = 4773, Miss_rate = 0.691, Pending_hits = 0, Reservation_fails = 0
L2_cache_bank[63]: Access = 6815, Miss = 4703, Miss_rate = 0.690, Pending_hits = 0, Reservation_fails = 0
L2_total_cache_accesses = 439607
L2_total_cache_misses = 303945
L2_total_cache_miss_rate = 0.6914
L2_total_cache_pending_hits = 5
L2_total_cache_reservation_fails = 0
L2_total_cache_breakdown:
	L2_cache_stats_breakdown[GLOBAL_ACC_R][HIT] = 102206
	L2_cache_stats_breakdown[GLOBAL_ACC_R][HIT_RESERVED] = 5
	L2_cache_stats_breakdown[GLOBAL_ACC_R][MISS] = 124906
	L2_cache_stats_breakdown[GLOBAL_ACC_R][RESERVATION_FAIL] = 0
	L2_cache_stats_breakdown[GLOBAL_ACC_R][SECTOR_MISS] = 146954
	L2_cache_stats_breakdown[LOCAL_ACC_R][HIT] = 0
	L2_cache_stats_breakdown[LOCAL_ACC_R][HIT_RESERVED] = 0
	L2_cache_stats_breakdown[LOCAL_ACC_R][MISS] = 0
	L2_cache_stats_breakdown[LOCAL_ACC_R][RESERVATION_FAIL] = 0
	L2_cache_stats_breakdown[LOCAL_ACC_R][SECTOR_MISS] = 0
	L2_cache_stats_breakdown[CONST_ACC_R][HIT] = 0
	L2_cache_stats_breakdown[CONST_ACC_R][HIT_RESERVED] = 0
	L2_cache_stats_breakdown[CONST_ACC_R][MISS] = 0
	L2_cache_stats_breakdown[CONST_ACC_R][RESERVATION_FAIL] = 0
	L2_cache_stats_breakdown[CONST_ACC_R][SECTOR_MISS] = 0
	L2_cache_stats_breakdown[TEXTURE_ACC_R][HIT] = 0
	L2_cache_stats_breakdown[TEXTURE_ACC_R][HIT_RESERVED] = 0
	L2_cache_stats_breakdown[TEXTURE_ACC_R][MISS] = 0
	L2_cache_stats_breakdown[TEXTURE_ACC_R][RESERVATION_FAIL] = 0
	L2_cache_stats_breakdown[TEXTURE_ACC_R][SECTOR_MISS] = 0
	L2_cache_stats_breakdown[GLOBAL_ACC_W][HIT] = 33451
	L2_cache_stats_breakdown[GLOBAL_ACC_W][HIT_RESERVED] = 0
	L2_cache_stats_breakdown[GLOBAL_ACC_W][MISS] = 5101
	L2_cache_stats_breakdown[GLOBAL_ACC_W][RESERVATION_FAIL] = 0
	L2_cache_stats_breakdown[GLOBAL_ACC_W][SECTOR_MISS] = 26984
	L2_cache_stats_breakdown[LOCAL_ACC_W][HIT] = 0
	L2_cache_stats_breakdown[LOCAL_ACC_W][HIT_RESERVED] = 0
	L2_cache_stats_breakdown[LOCAL_ACC_W][MISS] = 0
	L2_cache_stats_breakdown[LOCAL_ACC_W][RESERVATION_FAIL] = 0
	L2_cache_stats_breakdown[LOCAL_ACC_W][SECTOR_MISS] = 0
	L2_cache_stats_breakdown[L1_WRBK_ACC][HIT] = 0
	L2_cache_stats_breakdown[L1_WRBK_ACC][HIT_RESERVED] = 0
	L2_cache_stats_breakdown[L1_WRBK_ACC][MISS] = 0
	L2_cache_stats_breakdown[L1_WRBK_ACC][RESERVATION_FAIL] = 0
	L2_cache_stats_breakdown[L1_WRBK_ACC][SECTOR_MISS] = 0
	L2_cache_stats_breakdown[L2_WRBK_ACC][HIT] = 0
	L2_cache_stats_breakdown[L2_WRBK_ACC][HIT_RESERVED] = 0
	L2_cache_stats_breakdown[L2_WRBK_ACC][MISS] = 0
	L2_cache_stats_breakdown[L2_WRBK_ACC][RESERVATION_FAIL] = 0
	L2_cache_stats_breakdown[L2_WRBK_ACC][SECTOR_MISS] = 0
	L2_cache_stats_breakdown[INST_ACC_R][HIT] = 0
	L2_cache_stats_breakdown[INST_ACC_R][HIT_RESERVED] = 0
	L2_cache_stats_breakdown[INST_ACC_R][MISS] = 0
	L2_cache_stats_breakdown[INST_ACC_R][RESERVATION_FAIL] = 0
	L2_cache_stats_breakdown[INST_ACC_R][SECTOR_MISS] = 0
	L2_cache_stats_breakdown[L1_WR_ALLOC_R][HIT] = 0
	L2_cache_stats_breakdown[L1_WR_ALLOC_R][HIT_RESERVED] = 0
	L2_cache_stats_breakdown[L1_WR_ALLOC_R][MISS] = 0
	L2_cache_stats_breakdown[L1_WR_ALLOC_R][RESERVATION_FAIL] = 0
	L2_cache_stats_breakdown[L1_WR_ALLOC_R][SECTOR_MISS] = 0
	L2_cache_stats_breakdown[L2_WR_ALLOC_R][HIT] = 0
	L2_cache_stats_breakdown[L2_WR_ALLOC_R][HIT_RESERVED] = 0
	L2_cache_stats_breakdown[L2_WR_ALLOC_R][MISS] = 0
	L2_cache_stats_breakdown[L2_WR_ALLOC_R][RESERVATION_FAIL] = 0
	L2_cache_stats_breakdown[L2_WR_ALLOC_R][SECTOR_MISS] = 0
	L2_cache_stats_breakdown[GLOBAL_ACC_R][TOTAL_ACCESS] = 374071
	L2_cache_stats_breakdown[GLOBAL_ACC_W][TOTAL_ACCESS] = 65536
L2_total_cache_reservation_fail_breakdown:
L2_cache_data_port_util = 0.009
L2_cache_fill_port_util = 0.015

icnt_total_pkts_mem_to_simt=439607
icnt_total_pkts_simt_to_mem=439607
LD_mem_lat_dist  0 0 0 0 0 0 0 0 0 0 0 0 0 0 0 0 0 0 0 0 0 0 0 0 0 0 0
ST_mem_lat_dist  0 0 0 0 0 0 0 0 0 0 0 0 0 0 0 0 0 0 0 0 0 0 0 0 0 0 0
----------------------------Interconnect-DETAILS--------------------------------
Req_Network_injected_packets_num = 439607
Req_Network_cycles = 277221
Req_Network_injected_packets_per_cycle =       1.5858 
Req_Network_conflicts_per_cycle =       0.0206
Req_Network_conflicts_per_cycle_util =       0.0278
Req_Bank_Level_Parallism =       2.1349
Req_Network_in_buffer_full_per_cycle =       0.0000
Req_Network_in_buffer_avg_util =       0.0007
Req_Network_out_buffer_full_per_cycle =       0.0000
Req_Network_out_buffer_avg_util =       0.0248

Reply_Network_injected_packets_num = 439607
Reply_Network_cycles = 277221
Reply_Network_injected_packets_per_cycle =        1.5858
Reply_Network_conflicts_per_cycle =        0.4503
Reply_Network_conflicts_per_cycle_util =       0.6042
Reply_Bank_Level_Parallism =       2.1276
Reply_Network_in_buffer_full_per_cycle =       0.0000
Reply_Network_in_buffer_avg_util =       0.0076
Reply_Network_out_buffer_full_per_cycle =       0.0000
Reply_Network_out_buffer_avg_util =       0.0198
----------------------------END-of-Interconnect-DETAILS-------------------------


gpgpu_simulation_time = 0 days, 0 hrs, 12 min, 7 sec (727 sec)
gpgpu_simulation_rate = 25928 (inst/sec)
gpgpu_simulation_rate = 381 (cycle/sec)
gpgpu_silicon_slowdown = 2971128x
GPGPU-Sim: detected inactive GPU simulation thread

total_us: 1 laps, 670931537 us


gen_hists: 1 laps, 670931537.000000 us/lap, 83866442.125000 us/cta

GPGPU-Sim: synchronize waiting for inactive GPU simulation
GPGPU-Sim API: Stream Manager State
GPGPU-Sim API:    stream 1 has 1 operations
GPGPU-Sim API:       0 :  stream operation memcpy device-to-host
GPGPU-Sim: detected inactive GPU simulation thread
GPGPU-Sim: *** exit detected ***
