

        *** GPGPU-Sim Simulator Version 4.0.0  [build gpgpu-sim_git-commit-ffe0a1a00e984ecce9bf36e17ab94c4de0de8108_modified_0.0] ***


GPGPU-Sim PTX: simulation mode 0 (can change with PTX_SIM_MODE_FUNC environment variable:
               1=functional simulation only, 0=detailed performance simulator)
GPGPU-Sim PTX: overriding embedded ptx with ptx file (PTX_SIM_USE_PTX_FILE is set)
GPGPU-Sim: Configuration options:

-save_embedded_ptx                      0 # saves ptx files embedded in binary as <n>.ptx
-keep                                   0 # keep intermediate files created by GPGPU-Sim when interfacing with external programs
-gpgpu_ptx_save_converted_ptxplus                    0 # Saved converted ptxplus to a file
-gpgpu_occupancy_sm_number                   70 # The SM number to pass to ptxas when getting register usage for computing GPU occupancy. This parameter is required in the config.
-ptx_opcode_latency_int      4,13,4,5,145,21 # Opcode latencies for integers <ADD,MAX,MUL,MAD,DIV,SHFL>Default 1,1,19,25,145,32
-ptx_opcode_latency_fp          4,13,4,5,39 # Opcode latencies for single precision floating points <ADD,MAX,MUL,MAD,DIV>Default 1,1,1,1,30
-ptx_opcode_latency_dp         8,19,8,8,330 # Opcode latencies for double precision floating points <ADD,MAX,MUL,MAD,DIV>Default 8,8,8,8,335
-ptx_opcode_latency_sfu                  100 # Opcode latencies for SFU instructionsDefault 8
-ptx_opcode_latency_tesnor                   64 # Opcode latencies for Tensor instructionsDefault 64
-ptx_opcode_initiation_int          2,2,2,2,8,4 # Opcode initiation intervals for integers <ADD,MAX,MUL,MAD,DIV,SHFL>Default 1,1,4,4,32,4
-ptx_opcode_initiation_fp            2,2,2,2,4 # Opcode initiation intervals for single precision floating points <ADD,MAX,MUL,MAD,DIV>Default 1,1,1,1,5
-ptx_opcode_initiation_dp          4,4,4,4,130 # Opcode initiation intervals for double precision floating points <ADD,MAX,MUL,MAD,DIV>Default 8,8,8,8,130
-ptx_opcode_initiation_sfu                    8 # Opcode initiation intervals for sfu instructionsDefault 8
-ptx_opcode_initiation_tensor                   64 # Opcode initiation intervals for tensor instructionsDefault 64
-cdp_latency         7200,8000,100,12000,1600 # CDP API latency <cudaStreamCreateWithFlags, cudaGetParameterBufferV2_init_perWarp, cudaGetParameterBufferV2_perKernel, cudaLaunchDeviceV2_init_perWarp, cudaLaunchDevicV2_perKernel>Default 7200,8000,100,12000,1600
-network_mode                           2 # Interconnection network mode
-inter_config_file                   mesh # Interconnection network config file
-icnt_in_buffer_limit                  512 # in_buffer_limit
-icnt_out_buffer_limit                  512 # out_buffer_limit
-icnt_subnets                           2 # subnets
-icnt_arbiter_algo                      1 # arbiter_algo
-icnt_verbose                           0 # inct_verbose
-icnt_grant_cycles                      1 # grant_cycles
-gpgpu_ptx_use_cuobjdump                    1 # Use cuobjdump to extract ptx and sass from binaries
-gpgpu_experimental_lib_support                    0 # Try to extract code from cuda libraries [Broken because of unknown cudaGetExportTable]
-checkpoint_option                      0 #  checkpointing flag (0 = no checkpoint)
-checkpoint_kernel                      1 #  checkpointing during execution of which kernel (1- 1st kernel)
-checkpoint_CTA                         0 #  checkpointing after # of CTA (< less than total CTA)
-resume_option                          0 #  resume flag (0 = no resume)
-resume_kernel                          0 #  Resume from which kernel (1= 1st kernel)
-resume_CTA                             0 #  resume from which CTA 
-checkpoint_CTA_t                       0 #  resume from which CTA 
-checkpoint_insn_Y                      0 #  resume from which CTA 
-gpgpu_ptx_convert_to_ptxplus                    0 # Convert SASS (native ISA) to ptxplus and run ptxplus
-gpgpu_ptx_force_max_capability                   70 # Force maximum compute capability
-gpgpu_ptx_inst_debug_to_file                    0 # Dump executed instructions' debug information to file
-gpgpu_ptx_inst_debug_file       inst_debug.txt # Executed instructions' debug output file
-gpgpu_ptx_inst_debug_thread_uid                    1 # Thread UID for executed instructions' debug output
-gpgpu_n_mem_for_l2wb_pcommit                   32 # number of memory modules (e.g. memory controllers) in gpu
-gpgpu_n_sub_partition_per_mchannel_for_l2wb_pcommit                    2 # number of memory subpartition in each memory module
-gpgpu_dl2_bsize_for_l2wb_pcommit                  128 # default 128 bytes
-gpgpu_simd_model                       1 # 1 = post-dominator
-gpgpu_shader_core_pipeline              2048:32 # shader core pipeline config, i.e., {<nthread>:<warpsize>}
-gpgpu_tex_cache:l1  N:4:128:256,L:R:m:N:L,T:512:8,128:2 # per-shader L1 texture cache  (READ-ONLY) config  {<nsets>:<bsize>:<assoc>,<rep>:<wr>:<alloc>:<wr_alloc>,<mshr>:<N>:<merge>,<mq>:<rf>}
-gpgpu_const_cache:l1 N:128:64:8,L:R:f:N:L,S:2:64,4 # per-shader L1 constant memory cache  (READ-ONLY) config  {<nsets>:<bsize>:<assoc>,<rep>:<wr>:<alloc>:<wr_alloc>,<mshr>:<N>:<merge>,<mq>} 
-gpgpu_cache:il1     N:64:128:16,L:R:f:N:L,S:2:48,4 # shader L1 instruction cache config  {<nsets>:<bsize>:<assoc>,<rep>:<wr>:<alloc>:<wr_alloc>,<mshr>:<N>:<merge>,<mq>} 
-gpgpu_cache:dl1     S:1:128:256,L:L:s:N:L,A:256:8,16:0,32 # per-shader L1 data cache config  {<nsets>:<bsize>:<assoc>,<rep>:<wr>:<alloc>:<wr_alloc>,<mshr>:<N>:<merge>,<mq> | none}
-gpgpu_l1_banks                         4 # The number of L1 cache banks
-gpgpu_l1_banks_byte_interleaving                   32 # l1 banks byte interleaving granularity
-gpgpu_l1_banks_hashing_function                    0 # l1 banks hashing function
-gpgpu_l1_latency                      20 # L1 Hit Latency
-gpgpu_smem_latency                    20 # smem Latency
-gpgpu_cache:dl1PrefL1                 none # per-shader L1 data cache config  {<nsets>:<bsize>:<assoc>,<rep>:<wr>:<alloc>:<wr_alloc>,<mshr>:<N>:<merge>,<mq> | none}
-gpgpu_cache:dl1PrefShared                 none # per-shader L1 data cache config  {<nsets>:<bsize>:<assoc>,<rep>:<wr>:<alloc>:<wr_alloc>,<mshr>:<N>:<merge>,<mq> | none}
-gpgpu_gmem_skip_L1D                    0 # global memory access skip L1D cache (implements -Xptxas -dlcm=cg, default=no skip)
-gpgpu_perfect_mem                      0 # enable perfect memory mode (no cache miss)
-n_regfile_gating_group                    4 # group of lanes that should be read/written together)
-gpgpu_clock_gated_reg_file                    0 # enable clock gated reg file for power calculations
-gpgpu_clock_gated_lanes                    0 # enable clock gated lanes for power calculations
-gpgpu_shader_registers                65536 # Number of registers per shader core. Limits number of concurrent CTAs. (default 8192)
-gpgpu_registers_per_block                65536 # Maximum number of registers per CTA. (default 8192)
-gpgpu_ignore_resources_limitation                    0 # gpgpu_ignore_resources_limitation (default 0)
-gpgpu_shader_cta                      32 # Maximum number of concurrent CTAs in shader (default 8)
-gpgpu_num_cta_barriers                   16 # Maximum number of named barriers per CTA (default 16)
-gpgpu_n_clusters                      80 # number of processing clusters
-gpgpu_n_cores_per_cluster                    1 # number of simd cores per cluster
-gpgpu_n_cluster_ejection_buffer_size                   32 # number of packets in ejection buffer
-gpgpu_n_ldst_response_buffer_size                    2 # number of response packets in ld/st unit ejection buffer
-gpgpu_shmem_per_block                65536 # Size of shared memory per thread block or CTA (default 48kB)
-gpgpu_shmem_size                   98304 # Size of shared memory per shader core (default 16kB)
-gpgpu_adaptive_cache_config            536870913 # adaptive_cache_config
-gpgpu_shmem_sizeDefault                98304 # Size of shared memory per shader core (default 16kB)
-gpgpu_shmem_size_PrefL1                16384 # Size of shared memory per shader core (default 16kB)
-gpgpu_shmem_size_PrefShared                16384 # Size of shared memory per shader core (default 16kB)
-gpgpu_shmem_num_banks                   32 # Number of banks in the shared memory in each shader core (default 16)
-gpgpu_shmem_limited_broadcast                    0 # Limit shared memory to do one broadcast per cycle (default on)
-gpgpu_shmem_warp_parts                    1 # Number of portions a warp is divided into for shared memory bank conflict check 
-gpgpu_mem_unit_ports                    1 # The number of memory transactions allowed per core cycle
-gpgpu_shmem_warp_parts                    1 # Number of portions a warp is divided into for shared memory bank conflict check 
-gpgpu_warpdistro_shader                   -1 # Specify which shader core to collect the warp size distribution from
-gpgpu_warp_issue_shader                    0 # Specify which shader core to collect the warp issue distribution from
-gpgpu_local_mem_map                    1 # Mapping from local memory space address to simulated GPU physical address space (default = enabled)
-gpgpu_num_reg_banks                   16 # Number of register banks (default = 8)
-gpgpu_reg_bank_use_warp_id                    0 # Use warp ID in mapping registers to banks (default = off)
-gpgpu_sub_core_model                    1 # Sub Core Volta/Pascal model (default = off)
-gpgpu_enable_specialized_operand_collector                    0 # enable_specialized_operand_collector
-gpgpu_operand_collector_num_units_sp                    4 # number of collector units (default = 4)
-gpgpu_operand_collector_num_units_dp                    0 # number of collector units (default = 0)
-gpgpu_operand_collector_num_units_sfu                    4 # number of collector units (default = 4)
-gpgpu_operand_collector_num_units_int                    0 # number of collector units (default = 0)
-gpgpu_operand_collector_num_units_tensor_core                    4 # number of collector units (default = 4)
-gpgpu_operand_collector_num_units_mem                    2 # number of collector units (default = 2)
-gpgpu_operand_collector_num_units_gen                    8 # number of collector units (default = 0)
-gpgpu_operand_collector_num_in_ports_sp                    1 # number of collector unit in ports (default = 1)
-gpgpu_operand_collector_num_in_ports_dp                    0 # number of collector unit in ports (default = 0)
-gpgpu_operand_collector_num_in_ports_sfu                    1 # number of collector unit in ports (default = 1)
-gpgpu_operand_collector_num_in_ports_int                    0 # number of collector unit in ports (default = 0)
-gpgpu_operand_collector_num_in_ports_tensor_core                    1 # number of collector unit in ports (default = 1)
-gpgpu_operand_collector_num_in_ports_mem                    1 # number of collector unit in ports (default = 1)
-gpgpu_operand_collector_num_in_ports_gen                    8 # number of collector unit in ports (default = 0)
-gpgpu_operand_collector_num_out_ports_sp                    1 # number of collector unit in ports (default = 1)
-gpgpu_operand_collector_num_out_ports_dp                    0 # number of collector unit in ports (default = 0)
-gpgpu_operand_collector_num_out_ports_sfu                    1 # number of collector unit in ports (default = 1)
-gpgpu_operand_collector_num_out_ports_int                    0 # number of collector unit in ports (default = 0)
-gpgpu_operand_collector_num_out_ports_tensor_core                    1 # number of collector unit in ports (default = 1)
-gpgpu_operand_collector_num_out_ports_mem                    1 # number of collector unit in ports (default = 1)
-gpgpu_operand_collector_num_out_ports_gen                    8 # number of collector unit in ports (default = 0)
-gpgpu_coalesce_arch                   60 # Coalescing arch (GT200 = 13, Fermi = 20)
-gpgpu_num_sched_per_core                    4 # Number of warp schedulers per core
-gpgpu_max_insn_issue_per_warp                    1 # Max number of instructions that can be issued per warp in one cycle by scheduler (either 1 or 2)
-gpgpu_dual_issue_diff_exec_units                    1 # should dual issue use two different execution unit resources (Default = 1)
-gpgpu_simt_core_sim_order                    1 # Select the simulation order of cores in a cluster (0=Fix, 1=Round-Robin)
-gpgpu_pipeline_widths 4,4,4,4,4,4,4,4,4,4,8,4,4 # Pipeline widths ID_OC_SP,ID_OC_DP,ID_OC_INT,ID_OC_SFU,ID_OC_MEM,OC_EX_SP,OC_EX_DP,OC_EX_INT,OC_EX_SFU,OC_EX_MEM,EX_WB,ID_OC_TENSOR_CORE,OC_EX_TENSOR_CORE
-gpgpu_tensor_core_avail                    1 # Tensor Core Available (default=0)
-gpgpu_num_sp_units                     4 # Number of SP units (default=1)
-gpgpu_num_dp_units                     4 # Number of DP units (default=0)
-gpgpu_num_int_units                    4 # Number of INT units (default=0)
-gpgpu_num_sfu_units                    4 # Number of SF units (default=1)
-gpgpu_num_tensor_core_units                    4 # Number of tensor_core units (default=1)
-gpgpu_num_mem_units                    1 # Number if ldst units (default=1) WARNING: not hooked up to anything
-gpgpu_scheduler                      gto # Scheduler configuration: < lrr | gto | two_level_active > If two_level_active:<num_active_warps>:<inner_prioritization>:<outer_prioritization>For complete list of prioritization values see shader.h enum scheduler_prioritization_typeDefault: gto
-gpgpu_concurrent_kernel_sm                    0 # Support concurrent kernels on a SM (default = disabled)
-gpgpu_perfect_inst_const_cache                    1 # perfect inst and const cache mode, so all inst and const hits in the cache(default = disabled)
-gpgpu_inst_fetch_throughput                    4 # the number of fetched intruction per warp each cycle
-gpgpu_reg_file_port_throughput                    2 # the number ports of the register file
-specialized_unit_1         0,4,4,4,4,BRA # specialized unit config {<enabled>,<num_units>:<latency>:<initiation>,<ID_OC_SPEC>:<OC_EX_SPEC>,<NAME>}
-specialized_unit_2         0,4,4,4,4,BRA # specialized unit config {<enabled>,<num_units>:<latency>:<initiation>,<ID_OC_SPEC>:<OC_EX_SPEC>,<NAME>}
-specialized_unit_3         0,4,4,4,4,BRA # specialized unit config {<enabled>,<num_units>:<latency>:<initiation>,<ID_OC_SPEC>:<OC_EX_SPEC>,<NAME>}
-specialized_unit_4         0,4,4,4,4,BRA # specialized unit config {<enabled>,<num_units>:<latency>:<initiation>,<ID_OC_SPEC>:<OC_EX_SPEC>,<NAME>}
-specialized_unit_5         0,4,4,4,4,BRA # specialized unit config {<enabled>,<num_units>:<latency>:<initiation>,<ID_OC_SPEC>:<OC_EX_SPEC>,<NAME>}
-specialized_unit_6         0,4,4,4,4,BRA # specialized unit config {<enabled>,<num_units>:<latency>:<initiation>,<ID_OC_SPEC>:<OC_EX_SPEC>,<NAME>}
-specialized_unit_7         0,4,4,4,4,BRA # specialized unit config {<enabled>,<num_units>:<latency>:<initiation>,<ID_OC_SPEC>:<OC_EX_SPEC>,<NAME>}
-specialized_unit_8         0,4,4,4,4,BRA # specialized unit config {<enabled>,<num_units>:<latency>:<initiation>,<ID_OC_SPEC>:<OC_EX_SPEC>,<NAME>}
-gpgpu_perf_sim_memcpy                    1 # Fill the L2 cache on memcpy
-gpgpu_simple_dram_model                    0 # simple_dram_model with fixed latency and BW
-gpgpu_dram_scheduler                    1 # 0 = fifo, 1 = FR-FCFS (defaul)
-gpgpu_dram_partition_queues          64:64:64:64 # i2$:$2d:d2$:$2i
-l2_ideal                               0 # Use a ideal L2 cache that always hit
-gpgpu_cache:dl2     S:32:128:24,L:B:m:L:P,A:192:4,32:0,32 # unified banked L2 data cache config  {<nsets>:<bsize>:<assoc>,<rep>:<wr>:<alloc>:<wr_alloc>,<mshr>:<N>:<merge>,<mq>}
-gpgpu_cache:dl2_texture_only                    0 # L2 cache used for texture only
-gpgpu_n_mem                           32 # number of memory modules (e.g. memory controllers) in gpu
-gpgpu_n_sub_partition_per_mchannel                    2 # number of memory subpartition in each memory module
-gpgpu_n_mem_per_ctrlr                    1 # number of memory chips per memory controller
-gpgpu_memlatency_stat                   14 # track and display latency statistics 0x2 enables MC, 0x4 enables queue logs
-gpgpu_frfcfs_dram_sched_queue_size                   64 # 0 = unlimited (default); # entries per chip
-gpgpu_dram_return_queue_size                  192 # 0 = unlimited (default); # entries per chip
-gpgpu_dram_buswidth                   16 # default = 4 bytes (8 bytes per cycle at DDR)
-gpgpu_dram_burst_length                    2 # Burst length of each DRAM request (default = 4 data bus cycle)
-dram_data_command_freq_ratio                    2 # Frequency ratio between DRAM data bus and command bus (default = 2 times, i.e. DDR)
-gpgpu_dram_timing_opt nbk=16:CCD=1:RRD=3:RCD=12:RAS=28:RP=12:RC=40: CL=12:WL=2:CDLR=3:WR=10:nbkgrp=4:CCDL=2:RTPL=3 # DRAM timing parameters = {nbk:tCCD:tRRD:tRCD:tRAS:tRP:tRC:CL:WL:tCDLR:tWR:nbkgrp:tCCDL:tRTPL}
-gpgpu_l2_rop_latency                  160 # ROP queue latency (default 85)
-dram_latency                         200 # DRAM latency (default 30)
-dram_write_latency                   600 # DRAM write latency (default 100)
-dram_dual_bus_interface                    1 # dual_bus_interface (default = 0) 
-dram_bnk_indexing_policy                    0 # dram_bnk_indexing_policy (0 = normal indexing, 1 = Xoring with the higher bits) (Default = 0)
-dram_bnkgrp_indexing_policy                    1 # dram_bnkgrp_indexing_policy (0 = take higher bits, 1 = take lower bits) (Default = 0)
-dram_seperate_write_queue_enable                    0 # Seperate_Write_Queue_Enable
-dram_write_queue_size             32:28:16 # Write_Queue_Size
-dram_elimnate_rw_turnaround                    0 # elimnate_rw_turnaround i.e set tWTR and tRTW = 0
-icnt_flit_size                        40 # icnt_flit_size
-gpgpu_mem_addr_mapping dramid@8;00000000.00000000.00000000.00000000.0000RRRR.RRRRRRRR.RBBBCCCB.CCCSSSSS # mapping memory address to dram model {dramid@<start bit>;<memory address map>}
-gpgpu_mem_addr_test                    0 # run sweep test to check address mapping for aliased address
-gpgpu_mem_address_mask                    1 # 0 = old addressing mask, 1 = new addressing mask, 2 = new add. mask + flipped bank sel and chip sel bits
-gpgpu_memory_partition_indexing                    0 # 0 = no indexing, 1 = bitwise xoring, 2 = IPoly, 3 = custom indexing
-gpuwattch_xml_file         gpuwattch.xml # GPUWattch XML file
-power_simulation_enabled                    0 # Turn on power simulator (1=On, 0=Off)
-power_per_cycle_dump                    0 # Dump detailed power output each cycle
-power_trace_enabled                    0 # produce a file for the power trace (1=On, 0=Off)
-power_trace_zlevel                     6 # Compression level of the power trace output log (0=no comp, 9=highest)
-steady_power_levels_enabled                    0 # produce a file for the steady power levels (1=On, 0=Off)
-steady_state_definition                  8:4 # allowed deviation:number of samples
-gpgpu_max_cycle                        0 # terminates gpu simulation early (0 = no limit)
-gpgpu_max_insn                         0 # terminates gpu simulation early (0 = no limit)
-gpgpu_max_cta                          0 # terminates gpu simulation early (0 = no limit)
-gpgpu_max_completed_cta                    0 # terminates gpu simulation early (0 = no limit)
-gpgpu_runtime_stat                   500 # display runtime statistics such as dram utilization {<freq>:<flag>}
-liveness_message_freq                    1 # Minimum number of seconds between simulation liveness messages (0 = always print)
-gpgpu_compute_capability_major                    7 # Major compute capability version number
-gpgpu_compute_capability_minor                    0 # Minor compute capability version number
-gpgpu_flush_l1_cache                    1 # Flush L1 cache at the end of each kernel call
-gpgpu_flush_l2_cache                    0 # Flush L2 cache at the end of each kernel call
-gpgpu_deadlock_detect                    1 # Stop the simulation at deadlock (1=on (default), 0=off)
-gpgpu_ptx_instruction_classification                    0 # if enabled will classify ptx instruction types per kernel (Max 255 kernels now)
-gpgpu_ptx_sim_mode                     0 # Select between Performance (default) or Functional simulation (1)
-gpgpu_clock_domains 1132.0:1132.0:1132.0:850.0 # Clock Domain Frequencies in MhZ {<Core Clock>:<ICNT Clock>:<L2 Clock>:<DRAM Clock>}
-gpgpu_max_concurrent_kernel                    8 # maximum kernels that can run concurrently on GPU
-gpgpu_cflog_interval                    0 # Interval between each snapshot in control flow logger
-visualizer_enabled               3acf4816f28a61137a29f806736c3982  /home/pli11/Videos/parboil_benchmark/parboil/benchmarks/sad/build/nvm_default/sad
Extracting PTX file and ptxas options    1: sad.1.sm_70.ptx -arch=sm_70
Extracting PTX file and ptxas options    2: sad.2.sm_70.ptx -arch=sm_70
Extracting PTX file and ptxas options    3: sad.3.sm_70.ptx -arch=sm_70
      0 # Turn on visualizer output (1=On, 0=Off)
-visualizer_outputfile                 NULL # Specifies the output log file for visualizer
-visualizer_zlevel                      6 # Compression level of the visualizer output log (0=no comp, 9=highest)
-gpgpu_stack_size_limit                 1024 # GPU thread stack size
-gpgpu_heap_size_limit              8388608 # GPU malloc heap size 
-gpgpu_runtime_sync_depth_limit                    2 # GPU device runtime synchronize depth
-gpgpu_runtime_pending_launch_count_limit                 2048 # GPU device runtime pending launch count
-trace_enabled                          0 # Turn on traces
-trace_components                    none # comma seperated list of traces to enable. Complete list found in trace_streams.tup. Default none
-trace_sampling_core                    0 # The core which is printed using CORE_DPRINTF. Default 0
-trace_sampling_memory_partition                   -1 # The memory partition which is printed using MEMPART_DPRINTF. Default -1 (i.e. all)
-enable_ptx_file_line_stats                    1 # Turn on PTX source line statistic profiling. (1 = On)
-ptx_line_stats_filename gpgpu_inst_stats.txt # Output file for PTX source line statistics.
-gpgpu_kernel_launch_latency                 5000 # Kernel launch latency in cycles. Default: 0
-gpgpu_cdp_enabled                      0 # Turn on CDP
-gpgpu_TB_launch_latency                    0 # thread block launch latency in cycles. Default: 0
DRAM Timing Options:
nbk                                    16 # number of banks
CCD                                     1 # column to column delay
RRD                                     3 # minimal delay between activation of rows in different banks
RCD                                    12 # row to column delay
RAS                                    28 # time needed to activate row
RP                                     12 # time needed to precharge (deactivate) row
RC                                     40 # row cycle time
CDLR                                    3 # switching from write to read (changes tWTR)
WR                                     10 # last data-in to row precharge
CL                                     12 # CAS latency
WL                                      2 # Write latency
nbkgrp                                  4 # number of bank groups
CCDL                                    2 # column to column delay between accesses to different bank groups
RTPL                                    3 # read to precharge delay between accesses to different bank groups
Total number of memory sub partition = 64
addr_dec_mask[CHIP]  = 0000000000001f00 	high:13 low:8
addr_dec_mask[BK]    = 00000000000e2000 	high:20 low:13
addr_dec_mask[ROW]   = 00000001fff00000 	high:33 low:20
addr_dec_mask[COL]   = 000000000001c0ff 	high:17 low:0
addr_dec_mask[BURST] = 000000000000001f 	high:5 low:0
sub_partition_id_mask = 0000000000002000
GPGPU-Sim uArch: clock freqs: 1132000000.000000:1132000000.000000:1132000000.000000:850000000.000000
GPGPU-Sim uArch: clock periods: 0.00000000088339222615:0.00000000088339222615:0.00000000088339222615:0.00000000117647058824
*** Initializing Memory Statistics ***
GPGPU-Sim uArch: performance model initialization complete.
self exe links to: /home/pli11/Videos/parboil_benchmark/parboil/benchmarks/sad/build/nvm_default/sad
self exe links to: /home/pli11/Videos/parboil_benchmark/parboil/benchmarks/sad/build/nvm_default/sad
10.1
GPGPU-Sim PTX: __cudaRegisterFatBinary, fat_cubin_handle = 1, filename=default
self exe links to: /home/pli11/Videos/parboil_benchmark/parboil/benchmarks/sad/build/nvm_default/sad
Running md5sum using "md5sum /home/pli11/Videos/parboil_benchmark/parboil/benchmarks/sad/build/nvm_default/sad "
self exe links to: /home/pli11/Videos/parboil_benchmark/parboil/benchmarks/sad/build/nvm_default/sad
Extracting specific PTX file named sad.1.sm_70.ptx 
Extracting specific PTX file named sad.2.sm_70.ptx 
Extracting specific PTX file named sad.3.sm_70.ptx 
GPGPU-Sim PTX: __cudaRegisterFunction _Z16mb_sad_calc_nvmdPtS_ii : hostFun 0x0x403136, fat_cubin_handle = 1
GPGPU-Sim PTX: Parsing sad.1.sm_70.ptx
GPGPU-Sim PTX: allocating global region for "ref" from 0x100 to 0x104 (global memory space)
GPGPU-Sim PTX: allocating global region for "NVM_log" from 0x180 to 0x2000180 (global memory space)
GPGPU-Sim PTX: allocating global region for "NVM_flag" from 0x2000180 to 0x2400180 (global memory space)
GPGPU-Sim PTX: instruction assembly for function '_Z16mb_sad_calc_nvmoPtS_ii'...   done.
GPGPU-Sim PTX: instruction assembly for function '_Z16mb_sad_calc_nvmuPtS_ii'...   done.
GPGPU-Sim PTX: instruction assembly for function '_Z16mb_sad_calc_nvmqPtS_ii'...   done.
GPGPU-Sim PTX: instruction assembly for function '_Z16mb_sad_calc_nvmwPtS_ii'...   done.
GPGPU-Sim PTX: instruction assembly for function '_Z16mb_sad_calc_nvm1PtS_ii'...   done.
GPGPU-Sim PTX: instruction assembly for function '_Z16mb_sad_calc_nvm2PtS_ii'...   done.
GPGPU-Sim PTX: instruction assembly for function '_Z16mb_sad_calc_nvmjPtS_ii'...   done.
GPGPU-Sim PTX: instruction assembly for function '_Z16mb_sad_calc_nvmlPtS_ii'...   done.
GPGPU-Sim PTX: instruction assembly for function '_Z16mb_sad_calc_nvmgPtS_ii'...   done.
GPGPU-Sim PTX: instruction assembly for function '_Z16mb_sad_calc_nvm3PtS_ii'...   done.
GPGPU-Sim PTX: instruction assembly for function '_Z16mb_sad_calc_nvm4PtS_ii'...   done.
GPGPU-Sim PTX: instruction assembly for function '_Z16mb_sad_calc_nvmiPtS_ii'...   done.
GPGPU-Sim PTX: instruction assembly for function '_Z16mb_sad_calc_nvm6PtS_ii'...   done.
GPGPU-Sim PTX: instruction assembly for function '_Z16mb_sad_calc_nvm5PtS_ii'...   done.
GPGPU-Sim PTX: instruction assembly for function '_Z11mb_sad_calcPtS_ii'...   done.
GPGPU-Sim PTX: instruction assembly for function '_Z16mb_sad_calc_nvmbPtS_ii'...   done.
GPGPU-Sim PTX: instruction assembly for function '_Z16mb_sad_calc_nvmdPtS_ii'...   done.
GPGPU-Sim PTX: finished parsing EMBEDDED .ptx file sad.1.sm_70.ptx
GPGPU-Sim PTX: Parsing sad.2.sm_70.ptx
GPGPU-Sim PTX: instruction assembly for function '_Z17larger_sad_calc_8Ptii'...   done.
GPGPU-Sim PTX: instruction assembly for function '_Z22larger_sad_calc_8_nvmoPtii'...   done.
GPGPU-Sim PTX: instruction assembly for function '_Z22larger_sad_calc_8_nvmuPtii'...   done.
GPGPU-Sim PTX: instruction assembly for function '_Z22larger_sad_calc_8_nvmbPtii'...   done.
GPGPU-Sim PTX: instruction assembly for function '_Z18larger_sad_calc_16Ptii'...   done.
GPGPU-Sim PTX: finished parsing EMBEDDED .ptx file sad.2.sm_70.ptx
GPGPU-Sim PTX: Parsing sad.3.sm_70.ptx
GPGPU-Sim PTX: instruction assembly for function '_Z11kernel_l2wbv'...   done.
GPGPU-Sim PTX: instruction assembly for function '_Z15kernel_l2wb_pctv'...   done.
GPGPU-Sim PTX: finished parsing EMBEDDED .ptx file sad.3.sm_70.ptx
GPGPU-Sim PTX: loading globals with explicit initializers... 
GPGPU-Sim PTX: finished loading globals (0 bytes total).
GPGPU-Sim PTX: loading constants with explicit initializers...  done.
GPGPU-Sim PTX: Loading PTXInfo from sad.1.sm_70.ptx
GPGPU-Sim PTX: Kernel '_Z16mb_sad_calc_nvmdPtS_ii' : regs=48, lmem=0, smem=0, cmem=380
GPGPU-Sim PTX: Kernel '_Z16mb_sad_calc_nvmbPtS_ii' : regs=48, lmem=0, smem=0, cmem=380
GPGPU-Sim PTX: Kernel '_Z11mb_sad_calcPtS_ii' : regs=48, lmem=0, smem=0, cmem=380
GPGPU-Sim PTX: Kernel '_Z16mb_sad_calc_nvm5PtS_ii' : regs=64, lmem=0, smem=0, cmem=380
GPGPU-Sim PTX: Kernel '_Z16mb_sad_calc_nvm6PtS_ii' : regs=64, lmem=0, smem=0, cmem=380
GPGPU-Sim PTX: Kernel '_Z16mb_sad_calc_nvmiPtS_ii' : regs=56, lmem=0, smem=0, cmem=380
GPGPU-Sim PTX: Kernel '_Z16mb_sad_calc_nvm4PtS_ii' : regs=56, lmem=0, smem=0, cmem=380
GPGPU-Sim PTX: Kernel '_Z16mb_sad_calc_nvm3PtS_ii' : regs=56, lmem=0, smem=0, cmem=380
GPGPU-Sim PTX: Kernel '_Z16mb_sad_calc_nvmgPtS_ii' : regs=56, lmem=0, smem=0, cmem=380
GPGPU-Sim PTX: Kernel '_Z16mb_sad_calc_nvmlPtS_ii' : regs=48, lmem=0, smem=0, cmem=380
GPGPU-Sim PTX: Kernel '_Z16mb_sad_calc_nvmjPtS_ii' : regs=48, lmem=0, smem=0, cmem=380
GPGPU-Sim PTX: Kernel '_Z16mb_sad_calc_nvm2PtS_ii' : regs=48, lmem=0, smem=0, cmem=380
GPGPU-Sim PTX: Kernel '_Z16mb_sad_calc_nvm1PtS_ii' : regs=48, lmem=0, smem=0, cmem=380
GPGPU-Sim PTX: Kernel '_Z16mb_sad_calc_nvmwPtS_ii' : regs=56, lmem=0, smem=0, cmem=380
GPGPU-Sim PTX: Kernel '_Z16mb_sad_calc_nvmqPtS_ii' : regs=56, lmem=0, smem=0, cmem=380
GPGPU-Sim PTX: Kernel '_Z16mb_sad_calc_nvmuPtS_ii' : regs=56, lmem=0, smem=0, cmem=380
GPGPU-Sim PTX: Kernel '_Z16mb_sad_calc_nvmoPtS_ii' : regs=56, lmem=0, smem=0, cmem=380
GPGPU-Sim PTX: Loading PTXInfo from sad.2.sm_70.ptx
GPGPU-Sim PTX: Kernel '_Z18larger_sad_calc_16Ptii' : regs=32, lmem=0, smem=0, cmem=368
GPGPU-Sim PTX: Kernel '_Z22larger_sad_calc_8_nvmbPtii' : regs=32, lmem=0, smem=0, cmem=368
GPGPU-Sim PTX: Kernel '_Z22larger_sad_calc_8_nvmuPtii' : regs=32, lmem=0, smem=0, cmem=368
GPGPU-Sim PTX: Kernel '_Z22larger_sad_calc_8_nvmoPtii' : regs=32, lmem=0, smem=0, cmem=368
GPGPU-Sim PTX: Kernel '_Z17larger_sad_calc_8Ptii' : regs=32, lmem=0, smem=0, cmem=368
GPGPU-Sim PTX: Loading PTXInfo from sad.3.sm_70.ptx
GPGPU-Sim PTX: Kernel '_Z15kernel_l2wb_pctv' : regs=8, lmem=0, smem=0, cmem=352
GPGPU-Sim PTX: Kernel '_Z11kernel_l2wbv' : regs=8, lmem=0, smem=0, cmem=352
GPGPU-Sim PTX: __cudaRegisterFunction _Z16mb_sad_calc_nvmbPtS_ii : hostFun 0x0x402fc3, fat_cubin_handle = 1
GPGPU-Sim PTX: __cudaRegisterFunction _Z11mb_sad_calcPtS_ii : hostFun 0x0x402e50, fat_cubin_handle = 1
GPGPU-Sim PTX: __cudaRegisterFunction _Z16mb_sad_calc_nvm5PtS_ii : hostFun 0x0x402cdd, fat_cubin_handle = 1
GPGPU-Sim PTX: __cudaRegisterFunction _Z16mb_sad_calc_nvm6PtS_ii : hostFun 0x0x402b6a, fat_cubin_handle = 1
GPGPU-Sim PTX: __cudaRegisterFunction _Z16mb_sad_calc_nvmiPtS_ii : hostFun 0x0x4029f7, fat_cubin_handle = 1
GPGPU-Sim PTX: __cudaRegisterFunction _Z16mb_sad_calc_nvm4PtS_ii : hostFun 0x0x402884, fat_cubin_handle = 1
GPGPU-Sim PTX: __cudaRegisterFunction _Z16mb_sad_calc_nvm3PtS_ii : hostFun 0x0x402711, fat_cubin_handle = 1
GPGPU-Sim PTX: __cudaRegisterFunction _Z16mb_sad_calc_nvmgPtS_ii : hostFun 0x0x40259e, fat_cubin_handle = 1
GPGPU-Sim PTX: __cudaRegisterFunction _Z16mb_sad_calc_nvmlPtS_ii : hostFun 0x0x40242b, fat_cubin_handle = 1
GPGPU-Sim PTX: __cudaRegisterFunction _Z16mb_sad_calc_nvmjPtS_ii : hostFun 0x0x4022b8, fat_cubin_handle = 1
GPGPU-Sim PTX: __cudaRegisterFunction _Z16mb_sad_calc_nvm2PtS_ii : hostFun 0x0x402145, fat_cubin_handle = 1
GPGPU-Sim PTX: __cudaRegisterFunction _Z16mb_sad_calc_nvm1PtS_ii : hostFun 0x0x401fd2, fat_cubin_handle = 1
GPGPU-Sim PTX: __cudaRegisterFunction _Z16mb_sad_calc_nvmwPtS_ii : hostFun 0x0x401e5f, fat_cubin_handle = 1
GPGPU-Sim PTX: __cudaRegisterFunction _Z16mb_sad_calc_nvmqPtS_ii : hostFun 0x0x401cec, fat_cubin_handle = 1
GPGPU-Sim PTX: __cudaRegisterFunction _Z16mb_sad_calc_nvmuPtS_ii : hostFun 0x0x401b79, fat_cubin_handle = 1
GPGPU-Sim PTX: __cudaRegisterFunction _Z16mb_sad_calc_nvmoPtS_ii : hostFun 0x0x401a06, fat_cubin_handle = 1
GPGPU-Sim PTX: in __cudaRegisterTexture:
GPGPU-Sim PTX:   int dim = 2
GPGPU-Sim PTX:   int norm = 0
GPGPU-Sim PTX:   int ext = 0
GPGPU-Sim PTX:   Execution warning: Not finished implementing "void __cudaRegisterTextureInternal(void**, const textureReference*, const void**, const char*, int, int, int, gpgpu_context*)"
GPGPU-Sim PTX: __cudaRegisterVar: hostVar = 0x6132a0; deviceAddress = NVM_log; deviceName = NVM_log
GPGPU-Sim PTX: __cudaRegisterVar: Registering const memory space of 33554432 bytes
GPGPU-Sim PTX registering global NVM_log hostVar to name mapping
GPGPU-Sim PTX: __cudaRegisterVar: hostVar = 0x26132a0; deviceAddress = NVM_flag; deviceName = NVM_flag
GPGPU-Sim PTX: __cudaRegisterVar: Registering const memory space of 4194304 bytes
GPGPU-Sim PTX registering global NVM_flag hostVar to name mapping
self exe links to: /home/pli11/Videos/parboil_benchmark/parboil/benchmarks/sad/build/nvm_default/sad
self exe links to: /home/pli11/Videos/parboil_benchmark/parboil/benchmarks/sad/build/nvm_default/sad
10.1
GPGPU-Sim PTX: __cudaRegisterFatBinary, fat_cubin_handle = 2, filename=default
GPGPU-Sim PTX: __cudaRegisterFunction _Z18larger_sad_calc_16Ptii : hostFun 0x0x403ff1, fat_cubin_handle = 2
GPGPU-Sim PTX: __cudaRegisterFunction _Z22larger_sad_calc_8_nvmbPtii : hostFun 0x0x403e9a, fat_cubin_handle = 2
GPGPU-Sim PTX: __cudaRegisterFunction _Z22larger_sad_calc_8_nvmuPtii : hostFun 0x0x403d43, fat_cubin_handle = 2
GPGPU-Sim PTX: __cudaRegisterFunction _Z22larger_sad_calc_8_nvmoPtii : hostFun 0x0x403bec, fat_cubin_handle = 2
GPGPU-Sim PTX: __cudaRegisterFunction _Z17larger_sad_calc_8Ptii : hostFun 0x0x403a95, fat_cubin_handle = 2
self exe links to: /home/pli11/Videos/parboil_benchmark/parboil/benchmarks/sad/build/nvm_default/sad
self exe links to: /home/pli11/Videos/parboil_benchmark/parboil/benchmarks/sad/build/nvm_default/sad
10.1
GPGPU-Sim PTX: __cudaRegisterFatBinary, fat_cubin_handle = 3, filename=default
GPGPU-Sim PTX: __cudaRegisterFunction _Z15kernel_l2wb_pctv : hostFun 0x0x40676c, fat_cubin_handle = 3
GPGPU-Sim PTX: __cudaRegisterFunction _Z11kernel_l2wbv : hostFun 0x0x406672, fat_cubin_handle = 3
GPGPU-Sim PTX: cudaMallocArray: devPtr32 = -1073691136
GPGPU-Sim PTX: in cudaBindTextureToArray: 0x613220 0x11bc55c0
GPGPU-Sim PTX:   devPtr32 = c000c600
GPGPU-Sim PTX:   Name corresponding to textureReference: ref
GPGPU-Sim PTX:   Texture Normalized? = 0
GPGPU-Sim PTX:   texel size = 2
GPGPU-Sim PTX:   texture cache linesize = 128
GPGPU-Sim PTX:   Tx = 16; Ty = 4, Tx_numbits = 4, Ty_numbits = 2
GPGPU-Sim PTX:   Texel size = 2 bytes; texel_size_numbits = 1
GPGPU-Sim PTX:   Binding texture to array starting at devPtr32 = 0xc000c600
GPGPU-Sim PTX:   Texel size = 2 bytes
event update
width * height = 99
GPGPU-Sim: synchronize waiting for inactive GPU simulation
GPGPU-Sim API: Stream Manager State
GPGPU-Sim: detected inactive GPU simulation thread
GPGPU-Sim PTX: Setting up arguments for 8 bytes starting at 0x7fffd32a5ef8..
GPGPU-Sim PTX: Setting up arguments for 8 bytes starting at 0x7fffd32a5ef0..
GPGPU-Sim PTX: Setting up arguments for 4 bytes starting at 0x7fffd32a5eec..
GPGPU-Sim PTX: Setting up arguments for 4 bytes starting at 0x7fffd32a5ee8..

GPGPU-Sim PTX: cudaLaunch for 0x0x401fd2 (mode=performance simulation) on stream 0
GPGPU-Sim PTX: finding reconvergence points for '_Z16mb_sad_calc_nvm1PtS_ii'...
GPGPU-Sim PTX: Finding dominators for '_Z16mb_sad_calc_nvm1PtS_ii'...
GPGPU-Sim PTX: Finding immediate dominators for '_Z16mb_sad_calc_nvm1PtS_ii'...
GPGPU-Sim PTX: Finding postdominators for '_Z16mb_sad_calc_nvm1PtS_ii'...
GPGPU-Sim PTX: Finding immediate postdominators for '_Z16mb_sad_calc_nvm1PtS_ii'...
GPGPU-Sim PTX: pre-decoding instructions for '_Z16mb_sad_calc_nvm1PtS_ii'...
GPGPU-Sim PTX: reconvergence points for _Z16mb_sad_calc_nvm1PtS_ii...
GPGPU-Sim PTX:  1 (potential) branch divergence @  PC=0x1bc0 (sad.1.sm_70.ptx:1097) @%p3 bra BB4_7;
GPGPU-Sim PTX:    immediate post dominator      @  PC=0x2170 (sad.1.sm_70.ptx:1294) ret;
GPGPU-Sim PTX:  2 (potential) branch divergence @  PC=0x1c00 (sad.1.sm_70.ptx:1106) @%p4 bra BB4_4;
GPGPU-Sim PTX:    immediate post dominator      @  PC=0x20f8 (sad.1.sm_70.ptx:1270) bar.sync 0;
GPGPU-Sim PTX:  3 (potential) branch divergence @  PC=0x20f0 (sad.1.sm_70.ptx:1267) @%p5 bra BB4_3;
GPGPU-Sim PTX:    immediate post dominator      @  PC=0x20f8 (sad.1.sm_70.ptx:1270) bar.sync 0;
GPGPU-Sim PTX:  4 (potential) branch divergence @  PC=0x2148 (sad.1.sm_70.ptx:1280) @%p6 bra BB4_6;
GPGPU-Sim PTX:    immediate post dominator      @  PC=0x2168 (sad.1.sm_70.ptx:1290) membar.gl;
GPGPU-Sim PTX: ... end of reconvergence points for _Z16mb_sad_calc_nvm1PtS_ii
GPGPU-Sim PTX: ... done pre-decoding instructions for '_Z16mb_sad_calc_nvm1PtS_ii'.
GPGPU-Sim PTX: pushing kernel '_Z16mb_sad_calc_nvm1PtS_ii' to stream 0, gridDim= (44,36,1) blockDim = (61,1,1) 
GPGPU-Sim uArch: Shader 0 bind to kernel 1 '_Z16mb_sad_calc_nvm1PtS_ii'
GPGPU-Sim uArch: CTA/core = 21, limited by: regs
GPGPU-Sim: Reconfigure L1 cache to 128KB
GPGPU-Sim uArch: Shader 1 bind to kernel 1 '_Z16mb_sad_calc_nvm1PtS_ii'
GPGPU-Sim uArch: Shader 2 bind to kernel 1 '_Z16mb_sad_calc_nvm1PtS_ii'
GPGPU-Sim uArch: Shader 3 bind to kernel 1 '_Z16mb_sad_calc_nvm1PtS_ii'
GPGPU-Sim uArch: Shader 4 bind to kernel 1 '_Z16mb_sad_calc_nvm1PtS_ii'
GPGPU-Sim uArch: Shader 5 bind to kernel 1 '_Z16mb_sad_calc_nvm1PtS_ii'
GPGPU-Sim uArch: Shader 6 bind to kernel 1 '_Z16mb_sad_calc_nvm1PtS_ii'
GPGPU-Sim uArch: Shader 7 bind to kernel 1 '_Z16mb_sad_calc_nvm1PtS_ii'
GPGPU-Sim uArch: Shader 8 bind to kernel 1 '_Z16mb_sad_calc_nvm1PtS_ii'
GPGPU-Sim uArch: Shader 9 bind to kernel 1 '_Z16mb_sad_calc_nvm1PtS_ii'
GPGPU-Sim uArch: Shader 10 bind to kernel 1 '_Z16mb_sad_calc_nvm1PtS_ii'
GPGPU-Sim uArch: Shader 11 bind to kernel 1 '_Z16mb_sad_calc_nvm1PtS_ii'
GPGPU-Sim uArch: Shader 12 bind to kernel 1 '_Z16mb_sad_calc_nvm1PtS_ii'
GPGPU-Sim uArch: Shader 13 bind to kernel 1 '_Z16mb_sad_calc_nvm1PtS_ii'
GPGPU-Sim uArch: Shader 14 bind to kernel 1 '_Z16mb_sad_calc_nvm1PtS_ii'
GPGPU-Sim uArch: Shader 15 bind to kernel 1 '_Z16mb_sad_calc_nvm1PtS_ii'
GPGPU-Sim uArch: Shader 16 bind to kernel 1 '_Z16mb_sad_calc_nvm1PtS_ii'
GPGPU-Sim uArch: Shader 17 bind to kernel 1 '_Z16mb_sad_calc_nvm1PtS_ii'
GPGPU-Sim uArch: Shader 18 bind to kernel 1 '_Z16mb_sad_calc_nvm1PtS_ii'
GPGPU-Sim uArch: Shader 19 bind to kernel 1 '_Z16mb_sad_calc_nvm1PtS_ii'
GPGPU-Sim uArch: Shader 20 bind to kernel 1 '_Z16mb_sad_calc_nvm1PtS_ii'
GPGPU-Sim uArch: Shader 21 bind to kernel 1 '_Z16mb_sad_calc_nvm1PtS_ii'
GPGPU-Sim uArch: Shader 22 bind to kernel 1 '_Z16mb_sad_calc_nvm1PtS_ii'
GPGPU-Sim uArch: Shader 23 bind to kernel 1 '_Z16mb_sad_calc_nvm1PtS_ii'
GPGPU-Sim uArch: Shader 24 bind to kernel 1 '_Z16mb_sad_calc_nvm1PtS_ii'
GPGPU-Sim uArch: Shader 25 bind to kernel 1 '_Z16mb_sad_calc_nvm1PtS_ii'
GPGPU-Sim uArch: Shader 26 bind to kernel 1 '_Z16mb_sad_calc_nvm1PtS_ii'
GPGPU-Sim uArch: Shader 27 bind to kernel 1 '_Z16mb_sad_calc_nvm1PtS_ii'
GPGPU-Sim uArch: Shader 28 bind to kernel 1 '_Z16mb_sad_calc_nvm1PtS_ii'
GPGPU-Sim uArch: Shader 29 bind to kernel 1 '_Z16mb_sad_calc_nvm1PtS_ii'
GPGPU-Sim uArch: Shader 30 bind to kernel 1 '_Z16mb_sad_calc_nvm1PtS_ii'
GPGPU-Sim uArch: Shader 31 bind to kernel 1 '_Z16mb_sad_calc_nvm1PtS_ii'
GPGPU-Sim uArch: Shader 32 bind to kernel 1 '_Z16mb_sad_calc_nvm1PtS_ii'
GPGPU-Sim uArch: Shader 33 bind to kernel 1 '_Z16mb_sad_calc_nvm1PtS_ii'
GPGPU-Sim uArch: Shader 34 bind to kernel 1 '_Z16mb_sad_calc_nvm1PtS_ii'
GPGPU-Sim uArch: Shader 35 bind to kernel 1 '_Z16mb_sad_calc_nvm1PtS_ii'
GPGPU-Sim uArch: Shader 36 bind to kernel 1 '_Z16mb_sad_calc_nvm1PtS_ii'
GPGPU-Sim uArch: Shader 37 bind to kernel 1 '_Z16mb_sad_calc_nvm1PtS_ii'
GPGPU-Sim uArch: Shader 38 bind to kernel 1 '_Z16mb_sad_calc_nvm1PtS_ii'
GPGPU-Sim uArch: Shader 39 bind to kernel 1 '_Z16mb_sad_calc_nvm1PtS_ii'
GPGPU-Sim uArch: Shader 40 bind to kernel 1 '_Z16mb_sad_calc_nvm1PtS_ii'
GPGPU-Sim uArch: Shader 41 bind to kernel 1 '_Z16mb_sad_calc_nvm1PtS_ii'
GPGPU-Sim uArch: Shader 42 bind to kernel 1 '_Z16mb_sad_calc_nvm1PtS_ii'
GPGPU-Sim uArch: Shader 43 bind to kernel 1 '_Z16mb_sad_calc_nvm1PtS_ii'
GPGPU-Sim uArch: Shader 44 bind to kernel 1 '_Z16mb_sad_calc_nvm1PtS_ii'
GPGPU-Sim uArch: Shader 45 bind to kernel 1 '_Z16mb_sad_calc_nvm1PtS_ii'
GPGPU-Sim uArch: Shader 46 bind to kernel 1 '_Z16mb_sad_calc_nvm1PtS_ii'
GPGPU-Sim uArch: Shader 47 bind to kernel 1 '_Z16mb_sad_calc_nvm1PtS_ii'
GPGPU-Sim uArch: Shader 48 bind to kernel 1 '_Z16mb_sad_calc_nvm1PtS_ii'
GPGPU-Sim uArch: Shader 49 bind to kernel 1 '_Z16mb_sad_calc_nvm1PtS_ii'
GPGPU-Sim uArch: Shader 50 bind to kernel 1 '_Z16mb_sad_calc_nvm1PtS_ii'
GPGPU-Sim uArch: Shader 51 bind to kernel 1 '_Z16mb_sad_calc_nvm1PtS_ii'
GPGPU-Sim uArch: Shader 52 bind to kernel 1 '_Z16mb_sad_calc_nvm1PtS_ii'
GPGPU-Sim uArch: Shader 53 bind to kernel 1 '_Z16mb_sad_calc_nvm1PtS_ii'
GPGPU-Sim uArch: Shader 54 bind to kernel 1 '_Z16mb_sad_calc_nvm1PtS_ii'
GPGPU-Sim uArch: Shader 55 bind to kernel 1 '_Z16mb_sad_calc_nvm1PtS_ii'
GPGPU-Sim uArch: Shader 56 bind to kernel 1 '_Z16mb_sad_calc_nvm1PtS_ii'
GPGPU-Sim uArch: Shader 57 bind to kernel 1 '_Z16mb_sad_calc_nvm1PtS_ii'
GPGPU-Sim uArch: Shader 58 bind to kernel 1 '_Z16mb_sad_calc_nvm1PtS_ii'
GPGPU-Sim uArch: Shader 59 bind to kernel 1 '_Z16mb_sad_calc_nvm1PtS_ii'
GPGPU-Sim uArch: Shader 60 bind to kernel 1 '_Z16mb_sad_calc_nvm1PtS_ii'
GPGPU-Sim uArch: Shader 61 bind to kernel 1 '_Z16mb_sad_calc_nvm1PtS_ii'
GPGPU-Sim uArch: Shader 62 bind to kernel 1 '_Z16mb_sad_calc_nvm1PtS_ii'
GPGPU-Sim uArch: Shader 63 bind to kernel 1 '_Z16mb_sad_calc_nvm1PtS_ii'
GPGPU-Sim uArch: Shader 64 bind to kernel 1 '_Z16mb_sad_calc_nvm1PtS_ii'
GPGPU-Sim uArch: Shader 65 bind to kernel 1 '_Z16mb_sad_calc_nvm1PtS_ii'
GPGPU-Sim uArch: Shader 66 bind to kernel 1 '_Z16mb_sad_calc_nvm1PtS_ii'
GPGPU-Sim uArch: Shader 67 bind to kernel 1 '_Z16mb_sad_calc_nvm1PtS_ii'
GPGPU-Sim uArch: Shader 68 bind to kernel 1 '_Z16mb_sad_calc_nvm1PtS_ii'
GPGPU-Sim uArch: Shader 69 bind to kernel 1 '_Z16mb_sad_calc_nvm1PtS_ii'
GPGPU-Sim uArch: Shader 70 bind to kernel 1 '_Z16mb_sad_calc_nvm1PtS_ii'
GPGPU-Sim uArch: Shader 71 bind to kernel 1 '_Z16mb_sad_calc_nvm1PtS_ii'
GPGPU-Sim uArch: Shader 72 bind to kernel 1 '_Z16mb_sad_calc_nvm1PtS_ii'
GPGPU-Sim uArch: Shader 73 bind to kernel 1 '_Z16mb_sad_calc_nvm1PtS_ii'
GPGPU-Sim uArch: Shader 74 bind to kernel 1 '_Z16mb_sad_calc_nvm1PtS_ii'
GPGPU-Sim uArch: Shader 75 bind to kernel 1 '_Z16mb_sad_calc_nvm1PtS_ii'
GPGPU-Sim uArch: Shader 76 bind to kernel 1 '_Z16mb_sad_calc_nvm1PtS_ii'
GPGPU-Sim uArch: Shader 77 bind to kernel 1 '_Z16mb_sad_calc_nvm1PtS_ii'
GPGPU-Sim uArch: Shader 78 bind to kernel 1 '_Z16mb_sad_calc_nvm1PtS_ii'
GPGPU-Sim uArch: Shader 79 bind to kernel 1 '_Z16mb_sad_calc_nvm1PtS_ii'
Destroy streams for kernel 1: size 0
kernel_name = _Z16mb_sad_calc_nvm1PtS_ii 
kernel_launch_uid = 1 
gpu_sim_cycle = 175670
gpu_sim_insn = 235222416
gpu_ipc =    1339.0016
gpu_tot_sim_cycle = 175670
gpu_tot_sim_insn = 235222416
gpu_tot_ipc =    1339.0016
gpu_tot_issued_cta = 1584
gpu_occupancy = 48.4129% 
gpu_tot_occupancy = 48.4129% 
max_total_param_size = 0
gpu_stall_dramfull = 2397627
gpu_stall_icnt2sh    = 751
partiton_level_parallism =      10.6915
partiton_level_parallism_total  =      10.6915
partiton_level_parallism_util =      11.6472
partiton_level_parallism_util_total  =      11.6472
L2_BW  =     396.8942 GB/Sec
L2_BW_total  =     396.8942 GB/Sec
gpu_total_sim_rate=145109
############## bottleneck_stats #############
cycles: core 175670, icnt 175670, l2 175670, dram 131907
gpu_ipc	1339.002
gpu_tot_issued_cta = 1584, average cycles = 111
n_dram_writes	 0, n_dram_reads	 0
n_GLOBAL_ACC_R	 0 
n_LOCAL_ACC_R	 0 
n_CONST_ACC_R	 0 
n_TEXTURE_ACC_R	 0 
n_GLOBAL_ACC_W	 0 
n_LOCAL_ACC_W	 0 
n_L1_WRBK_ACC	 0 
n_L2_WRBK_ACC	 241838 
n_L1_WR_ALLOC_R	 0 
n_L2_WR_ALLOC_R	 0 

n_sm	 80, n_schedulers	 4
scheduler util	0.139	80
L1D data util	0.561	80	0.568	3
L1D tag util	0.188	80	0.192	54
L2 data util	0.069	64	0.070	40
L2 tag util	0.162	64	0.164	1
n_l2_access	 1823381
icnt s2m util	0.000	0	0.000	1	flits per packet: -nan
icnt m2s util	0.000	0	0.000	1	flits per packet: -nan
sum=0
n_mem	 32
dram util	0.229	32	0.232	24

latency_l1_hit:	16892287, num_l1_reqs:	844294
L1 hit latency:	20
latency_l2_hit:	867032929, num_l2_reqs:	770499
L2 hit latency:	1125
latency_dram:	220298233, num_dram_reqs:	1052882
DRAM latency:	209

n_reg	65536, n_smem	98304, n_thread	2048, n_tb	32
reg file	0.984
smem size	0.000
thread slot	0.656
TB slot    	0.656
L1I tag util	0.279	80	0.282	0

n_mem_pipe	1, n_sp_pipe	4, n_sfu_pipe	4
mem pipe util	0.135	80	0.137	0
sp pipe util	0.000	0	0.000	0
sfu pipe util	0.000	0	0.000	0
ldst mem cycle	0.007	80	0.007	0

smem port	0.000	0

n_reg_bank	16
reg port	0.221	16	0.242	11
L1D tag util	0.188	80	0.192	54
L1D fill util	0.003	80	0.003	3
n_l1d_mshr	4096
L1D mshr util	0.001	80
n_l1d_missq	16
L1D missq util	0.008	80
L1D hit rate	0.320
L1D miss rate	0.679
L1D rsfail rate	0.001
L2 tag util	0.162	64	0.164	1
L2 fill util	0.000	0	0.000	1
n_l2_mshr	192
n_l2_missq	32
L2 mshr util	0.000	0	0.000	1
L2 missq util	0.001	64	0.001	49
L2 hit rate	0.423
L2 miss rate	0.577
L2 rsfail rate	0.000

dram activity	0.314	32	0.318	8

load trans eff	0.062
load trans sz	32.000
load_useful_bytes 1824768, load_transaction_bytes 29196288, icnt_m2s_bytes 0
n_gmem_load_insns 912384, n_gmem_load_accesses 912384
n_smem_access_insn 0, n_smem_accesses 0

tmp_counter/12	0.461

run 0.031, fetch 0.000, sync 0.020, control 0.000, data 0.946, struct 0.003
############ end_bottleneck_stats #############

========= Core cache stats =========
L1I_cache:
	L1I_total_cache_accesses = 0
	L1I_total_cache_misses = 0
	L1I_total_cache_pending_hits = 0
	L1I_total_cache_reservation_fails = 0
L1D_cache:
	L1D_cache_core[0]: Access = 33300, Miss = 22613, Miss_rate = 0.679, Pending_hits = 0, Reservation_fails = 0
	L1D_cache_core[1]: Access = 33300, Miss = 22588, Miss_rate = 0.678, Pending_hits = 0, Reservation_fails = 0
	L1D_cache_core[2]: Access = 33300, Miss = 22719, Miss_rate = 0.682, Pending_hits = 0, Reservation_fails = 0
	L1D_cache_core[3]: Access = 33300, Miss = 22806, Miss_rate = 0.685, Pending_hits = 0, Reservation_fails = 0
	L1D_cache_core[4]: Access = 33300, Miss = 22676, Miss_rate = 0.681, Pending_hits = 0, Reservation_fails = 0
	L1D_cache_core[5]: Access = 33300, Miss = 22606, Miss_rate = 0.679, Pending_hits = 0, Reservation_fails = 0
	L1D_cache_core[6]: Access = 33300, Miss = 22634, Miss_rate = 0.680, Pending_hits = 0, Reservation_fails = 0
	L1D_cache_core[7]: Access = 33300, Miss = 22726, Miss_rate = 0.682, Pending_hits = 0, Reservation_fails = 0
	L1D_cache_core[8]: Access = 33300, Miss = 22670, Miss_rate = 0.681, Pending_hits = 0, Reservation_fails = 0
	L1D_cache_core[9]: Access = 33300, Miss = 22660, Miss_rate = 0.680, Pending_hits = 0, Reservation_fails = 0
	L1D_cache_core[10]: Access = 33300, Miss = 22710, Miss_rate = 0.682, Pending_hits = 0, Reservation_fails = 0
	L1D_cache_core[11]: Access = 33300, Miss = 22575, Miss_rate = 0.678, Pending_hits = 0, Reservation_fails = 0
	L1D_cache_core[12]: Access = 33300, Miss = 22666, Miss_rate = 0.681, Pending_hits = 0, Reservation_fails = 0
	L1D_cache_core[13]: Access = 33300, Miss = 22693, Miss_rate = 0.681, Pending_hits = 0, Reservation_fails = 0
	L1D_cache_core[14]: Access = 33300, Miss = 22701, Miss_rate = 0.682, Pending_hits = 0, Reservation_fails = 0
	L1D_cache_core[15]: Access = 33300, Miss = 22739, Miss_rate = 0.683, Pending_hits = 0, Reservation_fails = 0
	L1D_cache_core[16]: Access = 33300, Miss = 22644, Miss_rate = 0.680, Pending_hits = 0, Reservation_fails = 0
	L1D_cache_core[17]: Access = 33300, Miss = 22641, Miss_rate = 0.680, Pending_hits = 0, Reservation_fails = 0
	L1D_cache_core[18]: Access = 33300, Miss = 22634, Miss_rate = 0.680, Pending_hits = 0, Reservation_fails = 0
	L1D_cache_core[19]: Access = 33300, Miss = 22628, Miss_rate = 0.680, Pending_hits = 0, Reservation_fails = 0
	L1D_cache_core[20]: Access = 33300, Miss = 22680, Miss_rate = 0.681, Pending_hits = 0, Reservation_fails = 0
	L1D_cache_core[21]: Access = 33300, Miss = 22577, Miss_rate = 0.678, Pending_hits = 0, Reservation_fails = 0
	L1D_cache_core[22]: Access = 33300, Miss = 22693, Miss_rate = 0.681, Pending_hits = 0, Reservation_fails = 0
	L1D_cache_core[23]: Access = 33300, Miss = 22621, Miss_rate = 0.679, Pending_hits = 0, Reservation_fails = 0
	L1D_cache_core[24]: Access = 33300, Miss = 22788, Miss_rate = 0.684, Pending_hits = 0, Reservation_fails = 0
	L1D_cache_core[25]: Access = 33300, Miss = 22726, Miss_rate = 0.682, Pending_hits = 0, Reservation_fails = 0
	L1D_cache_core[26]: Access = 33300, Miss = 22697, Miss_rate = 0.682, Pending_hits = 0, Reservation_fails = 0
	L1D_cache_core[27]: Access = 33300, Miss = 22673, Miss_rate = 0.681, Pending_hits = 0, Reservation_fails = 0
	L1D_cache_core[28]: Access = 33300, Miss = 22680, Miss_rate = 0.681, Pending_hits = 0, Reservation_fails = 0
	L1D_cache_core[29]: Access = 33300, Miss = 22721, Miss_rate = 0.682, Pending_hits = 0, Reservation_fails = 0
	L1D_cache_core[30]: Access = 33300, Miss = 22629, Miss_rate = 0.680, Pending_hits = 0, Reservation_fails = 0
	L1D_cache_core[31]: Access = 33300, Miss = 22674, Miss_rate = 0.681, Pending_hits = 0, Reservation_fails = 0
	L1D_cache_core[32]: Access = 33300, Miss = 22608, Miss_rate = 0.679, Pending_hits = 0, Reservation_fails = 0
	L1D_cache_core[33]: Access = 33300, Miss = 22658, Miss_rate = 0.680, Pending_hits = 0, Reservation_fails = 0
	L1D_cache_core[34]: Access = 33300, Miss = 22636, Miss_rate = 0.680, Pending_hits = 0, Reservation_fails = 0
	L1D_cache_core[35]: Access = 33300, Miss = 22647, Miss_rate = 0.680, Pending_hits = 0, Reservation_fails = 0
	L1D_cache_core[36]: Access = 33300, Miss = 22569, Miss_rate = 0.678, Pending_hits = 0, Reservation_fails = 0
	L1D_cache_core[37]: Access = 33300, Miss = 22618, Miss_rate = 0.679, Pending_hits = 0, Reservation_fails = 0
	L1D_cache_core[38]: Access = 33300, Miss = 22627, Miss_rate = 0.679, Pending_hits = 0, Reservation_fails = 0
	L1D_cache_core[39]: Access = 33300, Miss = 22572, Miss_rate = 0.678, Pending_hits = 0, Reservation_fails = 0
	L1D_cache_core[40]: Access = 33300, Miss = 22790, Miss_rate = 0.684, Pending_hits = 0, Reservation_fails = 0
	L1D_cache_core[41]: Access = 33300, Miss = 22610, Miss_rate = 0.679, Pending_hits = 0, Reservation_fails = 0
	L1D_cache_core[42]: Access = 33300, Miss = 22660, Miss_rate = 0.680, Pending_hits = 0, Reservation_fails = 0
	L1D_cache_core[43]: Access = 33300, Miss = 22593, Miss_rate = 0.678, Pending_hits = 0, Reservation_fails = 0
	L1D_cache_core[44]: Access = 33300, Miss = 22600, Miss_rate = 0.679, Pending_hits = 0, Reservation_fails = 0
	L1D_cache_core[45]: Access = 33300, Miss = 22722, Miss_rate = 0.682, Pending_hits = 0, Reservation_fails = 0
	L1D_cache_core[46]: Access = 33300, Miss = 22575, Miss_rate = 0.678, Pending_hits = 0, Reservation_fails = 0
	L1D_cache_core[47]: Access = 33300, Miss = 22658, Miss_rate = 0.680, Pending_hits = 0, Reservation_fails = 0
	L1D_cache_core[48]: Access = 33300, Miss = 22600, Miss_rate = 0.679, Pending_hits = 0, Reservation_fails = 0
	L1D_cache_core[49]: Access = 33300, Miss = 22629, Miss_rate = 0.680, Pending_hits = 0, Reservation_fails = 0
	L1D_cache_core[50]: Access = 33300, Miss = 22635, Miss_rate = 0.680, Pending_hits = 0, Reservation_fails = 0
	L1D_cache_core[51]: Access = 33300, Miss = 22742, Miss_rate = 0.683, Pending_hits = 0, Reservation_fails = 0
	L1D_cache_core[52]: Access = 33300, Miss = 22617, Miss_rate = 0.679, Pending_hits = 0, Reservation_fails = 0
	L1D_cache_core[53]: Access = 33300, Miss = 22505, Miss_rate = 0.676, Pending_hits = 0, Reservation_fails = 0
	L1D_cache_core[54]: Access = 33300, Miss = 22545, Miss_rate = 0.677, Pending_hits = 0, Reservation_fails = 397
	L1D_cache_core[55]: Access = 33300, Miss = 22577, Miss_rate = 0.678, Pending_hits = 0, Reservation_fails = 0
	L1D_cache_core[56]: Access = 33300, Miss = 22667, Miss_rate = 0.681, Pending_hits = 0, Reservation_fails = 0
	L1D_cache_core[57]: Access = 33300, Miss = 22627, Miss_rate = 0.679, Pending_hits = 0, Reservation_fails = 0
	L1D_cache_core[58]: Access = 33300, Miss = 22630, Miss_rate = 0.680, Pending_hits = 0, Reservation_fails = 0
	L1D_cache_core[59]: Access = 33300, Miss = 22657, Miss_rate = 0.680, Pending_hits = 0, Reservation_fails = 0
	L1D_cache_core[60]: Access = 33300, Miss = 22624, Miss_rate = 0.679, Pending_hits = 0, Reservation_fails = 0
	L1D_cache_core[61]: Access = 33300, Miss = 22583, Miss_rate = 0.678, Pending_hits = 0, Reservation_fails = 0
	L1D_cache_core[62]: Access = 33300, Miss = 22569, Miss_rate = 0.678, Pending_hits = 0, Reservation_fails = 0
	L1D_cache_core[63]: Access = 33300, Miss = 22622, Miss_rate = 0.679, Pending_hits = 0, Reservation_fails = 0
	L1D_cache_core[64]: Access = 31635, Miss = 21443, Miss_rate = 0.678, Pending_hits = 0, Reservation_fails = 0
	L1D_cache_core[65]: Access = 31635, Miss = 21481, Miss_rate = 0.679, Pending_hits = 0, Reservation_fails = 0
	L1D_cache_core[66]: Access = 31635, Miss = 21435, Miss_rate = 0.678, Pending_hits = 0, Reservation_fails = 1144
	L1D_cache_core[67]: Access = 31635, Miss = 21460, Miss_rate = 0.678, Pending_hits = 0, Reservation_fails = 0
	L1D_cache_core[68]: Access = 31635, Miss = 21456, Miss_rate = 0.678, Pending_hits = 0, Reservation_fails = 0
	L1D_cache_core[69]: Access = 31635, Miss = 21492, Miss_rate = 0.679, Pending_hits = 0, Reservation_fails = 0
	L1D_cache_core[70]: Access = 31635, Miss = 21549, Miss_rate = 0.681, Pending_hits = 0, Reservation_fails = 0
	L1D_cache_core[71]: Access = 31635, Miss = 21511, Miss_rate = 0.680, Pending_hits = 0, Reservation_fails = 0
	L1D_cache_core[72]: Access = 31635, Miss = 21494, Miss_rate = 0.679, Pending_hits = 0, Reservation_fails = 0
	L1D_cache_core[73]: Access = 31635, Miss = 21459, Miss_rate = 0.678, Pending_hits = 0, Reservation_fails = 0
	L1D_cache_core[74]: Access = 31635, Miss = 21454, Miss_rate = 0.678, Pending_hits = 0, Reservation_fails = 0
	L1D_cache_core[75]: Access = 31635, Miss = 21503, Miss_rate = 0.680, Pending_hits = 0, Reservation_fails = 0
	L1D_cache_core[76]: Access = 31635, Miss = 21516, Miss_rate = 0.680, Pending_hits = 0, Reservation_fails = 0
	L1D_cache_core[77]: Access = 31635, Miss = 21433, Miss_rate = 0.678, Pending_hits = 0, Reservation_fails = 0
	L1D_cache_core[78]: Access = 31635, Miss = 21449, Miss_rate = 0.678, Pending_hits = 0, Reservation_fails = 124
	L1D_cache_core[79]: Access = 31635, Miss = 21471, Miss_rate = 0.679, Pending_hits = 0, Reservation_fails = 520
	L1D_total_cache_accesses = 2637360
	L1D_total_cache_misses = 1793066
	L1D_total_cache_miss_rate = 0.6799
	L1D_total_cache_pending_hits = 0
	L1D_total_cache_reservation_fails = 2185
	L1D_cache_data_port_util = 0.063
	L1D_cache_fill_port_util = 0.003
L1C_cache:
	L1C_total_cache_accesses = 0
	L1C_total_cache_misses = 0
	L1C_total_cache_pending_hits = 0
	L1C_total_cache_reservation_fails = 0
L1T_cache:
	L1T_total_cache_accesses = 8175273
	L1T_total_cache_misses = 15528
	L1T_total_cache_miss_rate = 0.0019
	L1T_total_cache_pending_hits = 8159745
	L1T_total_cache_reservation_fails = 0

Total_core_cache_stats:
	Total_core_cache_stats_breakdown[GLOBAL_ACC_R][HIT] = 844294
	Total_core_cache_stats_breakdown[GLOBAL_ACC_R][HIT_RESERVED] = 0
	Total_core_cache_stats_breakdown[GLOBAL_ACC_R][MISS] = 36293
	Total_core_cache_stats_breakdown[GLOBAL_ACC_R][RESERVATION_FAIL] = 0
	Total_core_cache_stats_breakdown[GLOBAL_ACC_R][SECTOR_MISS] = 31797
	Total_core_cache_stats_breakdown[LOCAL_ACC_R][HIT] = 0
	Total_core_cache_stats_breakdown[LOCAL_ACC_R][HIT_RESERVED] = 0
	Total_core_cache_stats_breakdown[LOCAL_ACC_R][MISS] = 0
	Total_core_cache_stats_breakdown[LOCAL_ACC_R][RESERVATION_FAIL] = 0
	Total_core_cache_stats_breakdown[LOCAL_ACC_R][SECTOR_MISS] = 0
	Total_core_cache_stats_breakdown[CONST_ACC_R][HIT] = 0
	Total_core_cache_stats_breakdown[CONST_ACC_R][HIT_RESERVED] = 0
	Total_core_cache_stats_breakdown[CONST_ACC_R][MISS] = 0
	Total_core_cache_stats_breakdown[CONST_ACC_R][RESERVATION_FAIL] = 0
	Total_core_cache_stats_breakdown[CONST_ACC_R][SECTOR_MISS] = 0
	Total_core_cache_stats_breakdown[TEXTURE_ACC_R][HIT] = 0
	Total_core_cache_stats_breakdown[TEXTURE_ACC_R][HIT_RESERVED] = 8159745
	Total_core_cache_stats_breakdown[TEXTURE_ACC_R][MISS] = 15528
	Total_core_cache_stats_breakdown[TEXTURE_ACC_R][RESERVATION_FAIL] = 0
	Total_core_cache_stats_breakdown[TEXTURE_ACC_R][SECTOR_MISS] = 0
	Total_core_cache_stats_breakdown[GLOBAL_ACC_W][HIT] = 0
	Total_core_cache_stats_breakdown[GLOBAL_ACC_W][HIT_RESERVED] = 0
	Total_core_cache_stats_breakdown[GLOBAL_ACC_W][MISS] = 1724976
	Total_core_cache_stats_breakdown[GLOBAL_ACC_W][RESERVATION_FAIL] = 2185
	Total_core_cache_stats_breakdown[GLOBAL_ACC_W][SECTOR_MISS] = 0
	Total_core_cache_stats_breakdown[LOCAL_ACC_W][HIT] = 0
	Total_core_cache_stats_breakdown[LOCAL_ACC_W][HIT_RESERVED] = 0
	Total_core_cache_stats_breakdown[LOCAL_ACC_W][MISS] = 0
	Total_core_cache_stats_breakdown[LOCAL_ACC_W][RESERVATION_FAIL] = 0
	Total_core_cache_stats_breakdown[LOCAL_ACC_W][SECTOR_MISS] = 0
	Total_core_cache_stats_breakdown[L1_WRBK_ACC][HIT] = 0
	Total_core_cache_stats_breakdown[L1_WRBK_ACC][HIT_RESERVED] = 0
	Total_core_cache_stats_breakdown[L1_WRBK_ACC][MISS] = 0
	Total_core_cache_stats_breakdown[L1_WRBK_ACC][RESERVATION_FAIL] = 0
	Total_core_cache_stats_breakdown[L1_WRBK_ACC][SECTOR_MISS] = 0
	Total_core_cache_stats_breakdown[L2_WRBK_ACC][HIT] = 0
	Total_core_cache_stats_breakdown[L2_WRBK_ACC][HIT_RESERVED] = 0
	Total_core_cache_stats_breakdown[L2_WRBK_ACC][MISS] = 0
	Total_core_cache_stats_breakdown[L2_WRBK_ACC][RESERVATION_FAIL] = 0
	Total_core_cache_stats_breakdown[L2_WRBK_ACC][SECTOR_MISS] = 0
	Total_core_cache_stats_breakdown[INST_ACC_R][HIT] = 0
	Total_core_cache_stats_breakdown[INST_ACC_R][HIT_RESERVED] = 0
	Total_core_cache_stats_breakdown[INST_ACC_R][MISS] = 0
	Total_core_cache_stats_breakdown[INST_ACC_R][RESERVATION_FAIL] = 0
	Total_core_cache_stats_breakdown[INST_ACC_R][SECTOR_MISS] = 0
	Total_core_cache_stats_breakdown[L1_WR_ALLOC_R][HIT] = 0
	Total_core_cache_stats_breakdown[L1_WR_ALLOC_R][HIT_RESERVED] = 0
	Total_core_cache_stats_breakdown[L1_WR_ALLOC_R][MISS] = 0
	Total_core_cache_stats_breakdown[L1_WR_ALLOC_R][RESERVATION_FAIL] = 0
	Total_core_cache_stats_breakdown[L1_WR_ALLOC_R][SECTOR_MISS] = 0
	Total_core_cache_stats_breakdown[L2_WR_ALLOC_R][HIT] = 0
	Total_core_cache_stats_breakdown[L2_WR_ALLOC_R][HIT_RESERVED] = 0
	Total_core_cache_stats_breakdown[L2_WR_ALLOC_R][MISS] = 0
	Total_core_cache_stats_breakdown[L2_WR_ALLOC_R][RESERVATION_FAIL] = 0
	Total_core_cache_stats_breakdown[L2_WR_ALLOC_R][SECTOR_MISS] = 0
	Total_core_cache_stats_breakdown[GLOBAL_ACC_R][TOTAL_ACCESS] = 912384
	Total_core_cache_stats_breakdown[TEXTURE_ACC_R][TOTAL_ACCESS] = 8175273
	Total_core_cache_stats_breakdown[GLOBAL_ACC_W][TOTAL_ACCESS] = 1724976

Total_core_cache_fail_stats:
	Total_core_cache_fail_stats_breakdown[GLOBAL_ACC_W][MISS_QUEUE_FULL] = 2185
Shader 0 warp_id issue ditsribution:
warp_id:
0, 1, 2, 3, 4, 5, 6, 7, 8, 9, 10, 11, 12, 13, 14, 15, 16, 17, 18, 19, 20, 21, 22, 23, 24, 25, 26, 27, 28, 29, 30, 31, 32, 33, 34, 35, 36, 37, 38, 39, 
distro:
2460, 2457, 2460, 2457, 2460, 2457, 2460, 2457, 2460, 2457, 2460, 2457, 2460, 2457, 2460, 2457, 2460, 2457, 2460, 2457, 2460, 2457, 2460, 2457, 2460, 2457, 2460, 2457, 2460, 2457, 2460, 2457, 2460, 2457, 2460, 2457, 2460, 2457, 2460, 2457, 
gpgpu_n_tot_thrd_icount = 249232896
gpgpu_n_tot_w_icount = 7788528
gpgpu_n_stall_shd_mem = 9098393
gpgpu_n_mem_read_local = 0
gpgpu_n_mem_write_local = 0
gpgpu_n_mem_read_global = 36293
gpgpu_n_mem_write_global = 1826352
gpgpu_n_mem_texture = 15528
gpgpu_n_mem_const = 0
gpgpu_n_load_insn  = 27599616
gpgpu_n_store_insn = 1726560
gpgpu_n_shmem_insn = 0
gpgpu_n_sstarr_insn = 0
gpgpu_n_tex_insn = 27599616
gpgpu_n_const_mem_insn = 0
gpgpu_n_param_mem_insn = 386496
gpgpu_n_shmem_bkconflict = 0
gpgpu_n_cache_bkconflict = 0
gpgpu_n_intrawarp_mshr_merge = 0
gpgpu_n_cmem_portconflict = 0
gpgpu_stall_shd_mem[c_mem][resource_stall] = 0
gpgpu_stall_shd_mem[s_mem][bk_conf] = 0
gpgpu_stall_shd_mem[gl_mem][resource_stall] = 1669155
gpgpu_stall_shd_mem[gl_mem][coal_stall] = 99792
gpgpu_stall_shd_mem[gl_mem][data_port_stall] = 0
gpu_reg_bank_conflict_stalls = 0
Warp Occupancy Distribution:
Stall:25610553	W0_Idle:648179	W0_Scoreboard:19550728	W1:4752	W2:0	W3:0	W4:0	W5:0	W6:0	W7:0	W8:0	W9:0	W10:0	W11:0	W12:0	W13:0	W14:0	W15:0	W16:0	W17:0	W18:0	W19:0	W20:0	W21:0	W22:0	W23:0	W24:0	W25:0	W26:0	W27:0	W28:1896048	W29:1995840	W30:0	W31:0	W32:3891888
single_issue_nums: WS0:1968000	WS1:1965600	WS2:1928640	WS3:1926288	
dual_issue_nums: WS0:0	WS1:0	WS2:0	WS3:0	
traffic_breakdown_coretomem[GLOBAL_ACC_R] = 290344 {8:36293,}
traffic_breakdown_coretomem[GLOBAL_ACC_W] = 69810048 {8:101376,40:1724976,}
traffic_breakdown_coretomem[TEXTURE_ACC_R] = 124224 {8:15528,}
traffic_breakdown_memtocore[GLOBAL_ACC_R] = 1451720 {40:36293,}
traffic_breakdown_memtocore[GLOBAL_ACC_W] = 14610816 {8:1826352,}
traffic_breakdown_memtocore[TEXTURE_ACC_R] = 2484480 {40:62112,}
maxmflatency = 7317 
max_icnt2mem_latency = 6854 
maxmrqlatency = 2291 
max_icnt2sh_latency = 845 
averagemflatency = 648 
avg_icnt2mem_latency = 291 
avg_mrq_latency = 97 
avg_icnt2sh_latency = 21 
mrq_lat_table:47334 	40328 	3637 	27573 	13553 	30774 	25413 	24827 	18077 	8777 	1528 	13 	0 	0 	0 	0 	0 	0 	0 	0 	0 	0 	0 	0 	0 	0 	0 	0 	0 	0 	0 	0 	
dq_lat_table:0 	0 	0 	0 	0 	0 	0 	0 	0 	0 	0 	0 	0 	0 	0 	0 	0 	0 	0 	0 	0 	0 	0 	0 	0 	0 	0 	0 	0 	0 	0 	0 	
mf_lat_table:0 	0 	0 	0 	0 	0 	0 	1295755 	145136 	142420 	184926 	107964 	48556 	0 	0 	0 	0 	0 	0 	0 	0 	0 	0 	0 	0 	0 	0 	0 	0 	0 	0 	0 	
icnt2mem_lat_table:0 	26598 	9487 	4679 	1112246 	289730 	53214 	59422 	86863 	71764 	65203 	75998 	22969 	0 	0 	0 	0 	0 	0 	0 	0 	0 	0 	0 	
icnt2sh_lat_table:0 	1415157 	129491 	110498 	97802 	66183 	36807 	21786 	22053 	24980 	0 	0 	0 	0 	0 	0 	0 	0 	0 	0 	0 	0 	0 	0 	
mf_lat_pw_table:0 	0 	0 	0 	0 	0 	0 	217 	20 	25 	44 	21 	8 	0 	0 	0 	0 	0 	0 	0 	0 	0 	0 	0 	0 	0 	0 	0 	0 	0 	0 	0 	
maximum concurrent accesses to same row:
dram[0]:        16        16        20        16        13        12        23        29        15        17        16        16        18        16        16        19 
dram[1]:        16        16        23        16        13        14        14        16        16        20        16        16        17        16        16        16 
dram[2]:        25        16        19        17        11        14        17        16        16        29        16        16        27        16        16        18 
dram[3]:        16        16        21        16        12        14        14        26        14        16        18        16        18        16        16        24 
dram[4]:        16        16        16        16        12        14        12        27        15        24        16        16        18        20        16        21 
dram[5]:        16        16        16        16        11        17        16        16        15        16        16        16        16        16        16        21 
dram[6]:        16        16        16        17        10        16        14        24        16        17        16        16        18        16        16        20 
dram[7]:        16        16        16        16        11        16        13        22        14        15        16        16        16        16        17        18 
dram[8]:        16        16        16        19        12        17        15        16        14        16        16        16        16        16        16        18 
dram[9]:        16        16        16        17        12        16        15        27        16        16        16        16        16        16        16        18 
dram[10]:        16        16        16        16        16        15        13        25        16        18        16        16        16        16        16        16 
dram[11]:        16        16        16        16        13        12        14        24        13        16        16        16        16        16        16        16 
dram[12]:        16        19        17        16        15        13        13        18        14        16        16        16        17        16        20        16 
dram[13]:        16        22        17        16        15        14        16        18        14        18        16        16        17        16        16        16 
dram[14]:        16        21        16        16        12        15        16        20        14        18        16        20        16        16        16        16 
dram[15]:        16        19        21        16        11        11        14        20        14        18        16        16        16        21        16        19 
dram[16]:        16        16        17        16        15        15        15        21        13        28        16        16        16        16        19        16 
dram[17]:        16        16        17        16        13        13        17        18        15        19        16        16        16        16        20        16 
dram[18]:        16        17        16        16        14        11        18        19        14        18        17        16        16        16        19        16 
dram[19]:        16        19        16        16        19        15        16        17        16        18        16        16        16        16        20        18 
dram[20]:        16        18        16        16        19        15        16        18        14        20        18        16        16        18        16        16 
dram[21]:        16        16        16        16        14        14        16        18        17        18        16        16        20        16        20        16 
dram[22]:        16        16        16        16        16        16        16        17        16        21        16        16        16        16        17        16 
dram[23]:        16        16        16        16        16        17        16        19        15        16        16        16        16        16        21        16 
dram[24]:        16        16        16        16        12        12        16        17        16        16        16        16        16        16        18        22 
dram[25]:        16        16        16        19        12        14        18        16        15        16        16        16        18        16        20        16 
dram[26]:        20        16        17        16        13        14        15        17        17        18        16        16        16        16        20        16 
dram[27]:        16        18        17        16        13        15        16        16        16        18        16        16        18        16        21        16 
dram[28]:        16        16        16        18        12        18        18        23        16        18        16        16        18        17        20        16 
dram[29]:        16        16        19        24        11        16        17        19        14        18        16        16        16        16        16        16 
dram[30]:        16        16        18        21        11        17        15        25        16        16        16        16        16        17        16        16 
dram[31]:        16        16        16        20        12        16        16        22        16        15        16        16        18        18        17        16 
maximum service time to same row:
dram[0]:     94433     94396     94451     94403     94427     94392     94440     94401     94424     94400     94435     94397     94448     94399     94429     94395 
dram[1]:     94431     94395     94449     94401     94425     94392     94441     94400     94423     94399     94433     94396     94447     94397     94428     94393 
dram[2]:     94431     94393     94449     94399     94425     94391     94441     94396     94423     94400     94433     94397     94447     94395     94428     94392 
dram[3]:     94427     94393     94448     94399     94429     94391     94443     94396     94421     94400     94432     94397     94445     94395     94424     94392 
dram[4]:     94425     94392     94433     94397     94428     94388     94448     94395     94420     94399     94435     94396     94436     94393     94423     94391 
dram[5]:     94424     94389     94429     94396     94427     94388     94445     94395     94419     94397     94432     94392     94435     94393     94421     94391 
dram[6]:     94424     94388     94429     94395     94427     94387     94445     94393     94419     94396     94432     94391     94435     94392     94421     94389 
dram[7]:     94420     94388     94425     94395     94431     94387     94444     94393     94417     94396     94428     94391     94433     94392     94423     94389 
dram[8]:     94419     94387     94424     94393     94432     94384     94427     94392     94416     94395     94429     94389     94435     94391     94421     94388 
dram[9]:     94417     94385     94423     94392     94431     94384     94425     94391     94415     94395     94428     94388     94433     94389     94420     94387 
dram[10]:     94419     94384     94423     94392     94431     94383     94425     94388     94415     94393     94428     94389     94433     94387     94420     94385 
dram[11]:     94416     94384     94421     94393     94429     94383     94427     94388     94413     94391     94424     94389     94432     94387     94419     94385 
dram[12]:     94415     94383     94436     94392     94425     94380     94421     94387     94412     94389     94423     94388     94428     94385     94417     94384 
dram[13]:     94413     94381     94440     94391     94424     94380     94419     94385     94411     94389     94421     94387     94432     94383     94416     94384 
dram[14]:     94413     94379     94440     94391     94424     94380     94419     94384     94411     94388     94421     94385     94431     94383     94417     94381 
dram[15]:     94409     94379     94436     94391     94417     94380     94415     94383     94428     94387     94420     94385     94425     94384     94413     94381 
dram[16]:     94411     94376     94435     94388     94408     94377     94421     94380     94429     94384     94416     94383     94424     94381     94413     94379 
dram[17]:     94409     94375     94425     94387     94407     94376     94423     94379     94431     94383     94415     94381     94417     94380     94412     94377 
dram[18]:     94409     94376     94425     94388     94407     94375     94427     94381     94431     94383     94415     94377     94420     94379     94412     94380 
dram[19]:     94411     94375     94424     94387     94405     94372     94421     94380     94429     94381     94413     94376     94419     94377     94408     94379 
dram[20]:     94409     94373     94425     94385     94404     94372     94417     94379     94429     94380     94413     94375     94420     94376     94407     94377 
dram[21]:     94408     94372     94416     94384     94403     94371     94413     94377     94427     94379     94412     94373     94419     94375     94405     94376 
dram[22]:     94408     94372     94419     94384     94403     94371     94415     94377     94431     94380     94411     94376     94416     94375     94405     94373 
dram[23]:     94407     94371     94417     94383     94401     94368     94412     94375     94428     94377     94409     94373     94415     94379     94405     94372 
dram[24]:     94400     94369     94416     94381     94404     94368     94411     94373     94424     94376     94408     94372     94413     94377     94405     94371 
dram[25]:     94399     94368     94423     94380     94403     94367     94415     94372     94420     94375     94407     94371     94409     94376     94404     94369 
dram[26]:     94399     94369     94423     94380     94403     94367     94417     94372     94412     94373     94407     94368     94415     94375     94404     94371 
dram[27]:     94397     94368     94421     94377     94400     94364     94416     94372     94411     94371     94405     94367     94413     94373     94403     94369 
dram[28]:     94404     94367     94421     94373     94396     94364     94415     94369     94409     94380     94401     94365     94412     94371     94399     94368 
dram[29]:     94403     94365     94417     94372     94395     94363     94413     94368     94411     94379     94400     94364     94405     94369     94397     94367 
dram[30]:     94403     94365     94413     94372     94395     94363     94411     94368     94408     94379     94400     94364     94405     94369     94397     94367 
dram[31]:     94401     94365     94412     94367     94393     94360     94413     94369     94407     94377     94399     94363     94404     94368     94396     94364 
average row accesses per activate:
dram[0]:  5.986301  5.047059  4.752475  5.031579  5.494845  4.820513  5.074380  5.085470  4.468750  4.423729  6.285714  6.500000  6.079365  5.243243  6.086957  6.484848 
dram[1]:  5.620253  5.397590  5.071429  4.564815  5.540000  5.196262  5.068965  5.418182  3.660377  4.260504  5.677419  6.865385  5.918033  5.213333  5.756757  6.000000 
dram[2]:  5.837500  5.679487  4.959184  4.338983  4.875000  5.583333  4.941176  5.372727  4.102941  4.193277  5.515625  7.102041  6.709091  5.087500  5.891892  6.000000 
dram[3]:  6.197369  5.544304  5.000000  5.183673  5.179245  5.844444  4.991453  5.336538  3.705479  4.072581  6.186440  6.403509  5.557143  5.302631  6.400000  6.681159 
dram[4]:  6.109589  5.645570  4.223214  4.432693  5.252525  5.074074  4.676923  4.855932  3.771242  4.867925  6.155172  5.582089  6.140625  5.638889  5.689189  8.557693 
dram[5]:  5.770270  5.000000  5.460674  4.650486  4.972727  5.539216  4.687023  4.796748  3.873333  5.020000  5.965517  5.918033  6.131147  5.779412  6.044117  8.913043 
dram[6]:  5.906667  5.650000  5.517241  5.382979  4.250000  5.340000  4.696000  4.540741  4.164286  4.697248  5.847457  6.314815  5.883333  6.238095  6.027778  9.173913 
dram[7]:  5.576470  5.853333  5.528736  5.735632  4.459016  5.815217  5.000000  4.865546  3.912409  4.330435  6.000000  6.648148  4.482353  6.044776  6.625000  7.543859 
dram[8]:  5.337209  5.543210  5.500000  5.914634  4.369748  5.734043  4.865546  4.946903  4.000000  4.367521  6.622642  6.095238  4.807229  7.109091  6.041667  7.516667 
dram[9]:  4.941176  5.866667  4.782178  5.722891  4.721739  5.742268  4.959350  5.261261  3.891892  4.486486  5.546875  6.431035  5.841270  6.000000  6.000000  7.578948 
dram[10]:  4.780220  6.953846  5.813953  4.969388  5.475728  5.838710  5.096491  4.742188  4.352941  4.486486  6.385965  7.354167  5.661290  5.753623  6.828125  6.733333 
dram[11]:  4.625000  7.962963  5.759036  5.168317  5.814433  5.352941  4.752066  4.669291  4.296000  4.205128  6.280702  6.897959  5.454545  5.910448  7.750000  5.815790 
dram[12]:  5.448276  6.784616  5.545455  4.836538  5.635417  5.320388  5.327103  4.636364  4.365079  3.716418  6.769231  6.280702  5.356164  6.230769  7.389831  6.260274 
dram[13]:  5.341464  7.416667  5.590909  4.826530  5.655914  5.055555  5.580952  4.612903  4.335878  5.010101  6.258621  6.131147  5.969697  5.410959  6.250000  6.402985 
dram[14]:  5.546667  7.389831  5.159575  4.500000  4.571429  5.036364  5.485981  4.755906  4.372263  4.728972  6.298245  6.192983  5.873016  5.528572  6.507463  5.638889 
dram[15]:  5.805195  7.854546  5.477778  4.508621  4.372093  5.291262  5.060345  4.323944  3.764286  4.847619  7.346939  5.573771  6.180328  5.637681  7.448276  5.871428 
dram[16]:  6.106667  6.757576  4.990099  4.508772  4.732759  5.000000  5.166667  4.311111  3.753731  4.531531  7.145833  4.928571  5.459459  5.671642  6.950819  5.884615 
dram[17]:  5.121951  6.352113  5.344086  4.435185  4.666667  4.954545  5.462264  4.468750  3.648276  4.784314  7.739130  5.575758  5.970149  6.030769  7.857143  6.082192 
dram[18]:  4.516483  6.267606  5.145833  4.165217  4.925234  5.375000  6.696629  4.119718  3.629870  4.950495  7.160000  6.634615  6.534483  4.951220  7.209677  6.104477 
dram[19]:  5.571429  6.000000  5.215054  4.535714  5.432693  5.366337  6.114583  4.761539  4.038760  4.350427  7.300000  5.982759  6.440678  5.220779  8.450980  6.323077 
dram[20]:  5.333333  5.878378  5.010000  4.877358  5.375000  4.945946  5.370370  4.893443  4.148760  4.239316  7.102041  6.720000  5.500000  6.807017  7.924528  5.525000 
dram[21]:  5.317647  6.471428  5.089109  4.883495  5.537634  5.018018  5.102564  4.921739  4.136000  4.330435  6.840000  6.050848  6.028986  6.459016  9.000000  6.666667 
dram[22]:  5.506329  6.984615  5.730337  4.686869  5.412371  5.102804  5.051724  4.701613  4.021429  4.321739  6.648148  7.055555  5.129870  5.647887  8.148149  6.523809 
dram[23]:  4.920455  8.035714  5.073684  4.575472  4.731092  5.956522  5.141593  4.984127  4.220472  4.486726  6.288136  7.574468  5.239437  5.694445 10.575000  6.223881 
dram[24]:  4.585859  7.109375  4.891089  4.672566  4.789916  5.298077  4.833333  4.699248  3.968504  4.616071  6.428571  7.320000  4.961039  5.383562 10.350000  6.013889 
dram[25]:  4.967742  6.054054  5.090000  5.144330  5.113207  5.160714  5.126050  4.423077  4.147541  4.886793  6.566038  6.754717  5.100000  5.848485  9.976745  6.175676 
dram[26]:  5.273809  6.342466  5.278350  5.593023  4.769911  5.495146  5.523809  4.582677  4.109375  4.900000  5.836066  6.944445  5.480000  5.076923  9.040816  6.159420 
dram[27]:  5.292683  7.483333  5.322222  4.893617  4.778761  6.055555  5.820000  4.467626  3.748344  4.854369  6.169491  7.122449  5.939394  5.722222  8.686275  6.770492 
dram[28]:  4.900000  6.934426  5.266667  5.000000  4.564516  6.197802  6.079208  4.880000  3.865672  4.415254  6.338983  6.800000  5.608696  6.161290  8.851064  6.412698 
dram[29]:  5.482353  7.114754  5.410526  5.505376  4.793103  5.446602  5.776699  4.950413  3.742647  4.517241  6.622642  6.200000  4.839506  5.765625  7.796296  6.041667 
dram[30]:  5.500000  6.273973  5.128713  5.523256  4.626087  5.790000  4.850000  4.796610  3.690647  4.901961  7.000000  6.241379  6.159420  6.000000  6.904762  5.192771 
dram[31]:  4.866667  6.369863  5.020618  5.750000  4.705357  5.817204  5.144144  4.628788  3.758389  4.901961  6.389831  6.032787  6.015385  6.101449  6.671429  5.291139 
average row locality = 241834/45529 = 5.311647
number of total memory accesses made:
dram[0]:         0         0         0         0         0         0         0         0         0         0         0         0         0         0         0         0 
dram[1]:         0         0         0         0         0         0         0         0         0         0         0         0         0         0         0         0 
dram[2]:         0         0         0         0         0         0         0         0         0         0         0         0         0         0         0         0 
dram[3]:         0         0         0         0         0         0         0         0         0         0         0         0         0         0         0         0 
dram[4]:         0         0         0         0         0         0         0         0         0         0         0         0         0         0         0         0 
dram[5]:         0         0         0         0         0         0         0         0         0         0         0         0         0         0         0         0 
[...]
issued_total_col = 30196 
Row_Bus_Util =  0.020803 
CoL_Bus_Util = 0.228919 
Either_Row_CoL_Bus_Util = 0.235423 
Issued_on_Two_Bus_Simul_Util = 0.014298 
issued_two_Eff = 0.060733 
queue_avg = 4.171249 


dram_util_bins: 0 0 0 0 0 0 0 0 0 0
dram_eff_bins: 0 0 0 0 0 0 0 0 0 0
mrqq: max=64 avg=4.17125
Memory Partition 28: 
Cache L2_bank_056:

Cache L2_bank_057:

In Dram Latency Queue (total = 8): 
DRAM[28]: 16 bks, busW=16 BL=2 CL=12, tRRD=3 tCCD=1, tRCD=12 tRAS=28 tRP=12 tRC=40
n_cmd=131907 n_nop=100952 n_act=1385 n_pre=1369 n_ref_event=0 n_req=7539 n_rd=0 n_rd_L2_A=0 n_write=0 n_wr_bk=30156 bw_util=0.2286
n_activity=44793 dram_eff=0.6732
bk0: 0a 119539i bk1: 0a 121492i bk2: 0a 119741i bk3: 0a 118793i bk4: 0a 116511i bk5: 0a 118032i bk6: 0a 116841i bk7: 0a 116077i bk8: 0a 116353i bk9: 0a 116714i bk10: 0a 120529i bk11: 0a 122401i bk12: 0a 121137i bk13: 0a 121078i bk14: 0a 121428i bk15: 0a 120613i 

------------------------------------------------------------------------

Row_Buffer_Locality = 0.816289
Row_Buffer_Locality_read = -nan
Row_Buffer_Locality_write = 0.816289
Bank_Level_Parallism = 5.113839
Bank_Level_Parallism_Col = 4.831921
Bank_Level_Parallism_Ready = 3.976688
write_to_read_ratio_blp_rw_average = 1.000000
GrpLevelPara = 2.371374 

BW Util details:
bwutil = 0.228616 
total_CMD = 131907 
util_bw = 30156 
Wasted_Col = 8532 
Wasted_Row = 2528 
Idle = 90691 

BW Util Bottlenecks: 
RCDc_limit = 0 
RCDWRc_limit = 3365 
WTRc_limit = 0 
RTWc_limit = 0 
CCDLc_limit = 7960 
rwq = 0 
CCDLc_limit_alone = 7960 
WTRc_limit_alone = 0 
RTWc_limit_alone = 0 

Commands details: 
total_CMD = 131907 
n_nop = 100952 
Read = 0 
Write = 0 
L2_Alloc = 0 
L2_WB = 30156 
n_act = 1385 
n_pre = 1369 
n_ref = 0 
n_req = 7539 
total_req = 30156 

Dual Bus Interface Util: 
issued_total_row = 2754 
issued_total_col = 30156 
Row_Bus_Util =  0.020878 
CoL_Bus_Util = 0.228616 
Either_Row_CoL_Bus_Util = 0.234673 
Issued_on_Two_Bus_Simul_Util = 0.014821 
issued_two_Eff = 0.063156 
queue_avg = 4.085356 


dram_util_bins: 0 0 0 0 0 0 0 0 0 0
dram_eff_bins: 0 0 0 0 0 0 0 0 0 0
mrqq: max=64 avg=4.08536
Memory Partition 29: 
Cache L2_bank_058:

Cache L2_bank_059:

In Dram Latency Queue (total = 8): 
DRAM[29]: 16 bks, busW=16 BL=2 CL=12, tRRD=3 tCCD=1, tRCD=12 tRAS=28 tRP=12 tRC=40
n_cmd=131907 n_nop=100772 n_act=1408 n_pre=1392 n_ref_event=0 n_req=7579 n_rd=0 n_rd_L2_A=0 n_write=0 n_wr_bk=30316 bw_util=0.2298
n_activity=44812 dram_eff=0.6765
bk0: 0a 120404i bk1: 0a 121295i bk2: 0a 118966i bk3: 0a 118421i bk4: 0a 116791i bk5: 0a 117439i bk6: 0a 116272i bk7: 0a 116060i bk8: 0a 116551i bk9: 0a 116588i bk10: 0a 121807i bk11: 0a 122174i bk12: 0a 120907i bk13: 0a 121271i bk14: 0a 121928i bk15: 0a 120760i 

------------------------------------------------------------------------

Row_Buffer_Locality = 0.814224
Row_Buffer_Locality_read = -nan
Row_Buffer_Locality_write = 0.814224
Bank_Level_Parallism = 5.108304
Bank_Level_Parallism_Col = 4.790956
Bank_Level_Parallism_Ready = 3.934358
write_to_read_ratio_blp_rw_average = 1.000000
GrpLevelPara = 2.370669 

BW Util details:
bwutil = 0.229829 
total_CMD = 131907 
util_bw = 30316 
Wasted_Col = 8509 
Wasted_Row = 2374 
Idle = 90708 

BW Util Bottlenecks: 
RCDc_limit = 0 
RCDWRc_limit = 3524 
WTRc_limit = 0 
RTWc_limit = 0 
CCDLc_limit = 7725 
rwq = 0 
CCDLc_limit_alone = 7725 
WTRc_limit_alone = 0 
RTWc_limit_alone = 0 

Commands details: 
total_CMD = 131907 
n_nop = 100772 
Read = 0 
Write = 0 
L2_Alloc = 0 
L2_WB = 30316 
n_act = 1408 
n_pre = 1392 
n_ref = 0 
n_req = 7579 
total_req = 30316 

Dual Bus Interface Util: 
issued_total_row = 2800 
issued_total_col = 30316 
Row_Bus_Util =  0.021227 
CoL_Bus_Util = 0.229829 
Either_Row_CoL_Bus_Util = 0.236038 
Issued_on_Two_Bus_Simul_Util = 0.015018 
issued_two_Eff = 0.063626 
queue_avg = 4.140470 


dram_util_bins: 0 0 0 0 0 0 0 0 0 0
dram_eff_bins: 0 0 0 0 0 0 0 0 0 0
mrqq: max=64 avg=4.14047
Memory Partition 30: 
Cache L2_bank_060:

Cache L2_bank_061:

In Dram Latency Queue (total = 8): 
DRAM[30]: 16 bks, busW=16 BL=2 CL=12, tRRD=3 tCCD=1, tRCD=12 tRAS=28 tRP=12 tRC=40
n_cmd=131907 n_nop=100866 n_act=1422 n_pre=1406 n_ref_event=0 n_req=7556 n_rd=0 n_rd_L2_A=0 n_write=0 n_wr_bk=30224 bw_util=0.2291
n_activity=44645 dram_eff=0.677
bk0: 0a 120516i bk1: 0a 120478i bk2: 0a 118860i bk3: 0a 119327i bk4: 0a 117444i bk5: 0a 117498i bk6: 0a 116255i bk7: 0a 117140i bk8: 0a 116650i bk9: 0a 118228i bk10: 0a 122060i bk11: 0a 122138i bk12: 0a 121441i bk13: 0a 120467i bk14: 0a 120973i bk15: 0a 120354i 

------------------------------------------------------------------------

Row_Buffer_Locality = 0.811805
Row_Buffer_Locality_read = -nan
Row_Buffer_Locality_write = 0.811805
Bank_Level_Parallism = 5.064178
Bank_Level_Parallism_Col = 4.736534
Bank_Level_Parallism_Ready = 3.875993
write_to_read_ratio_blp_rw_average = 1.000000
GrpLevelPara = 2.352439 

BW Util details:
bwutil = 0.229131 
total_CMD = 131907 
util_bw = 30224 
Wasted_Col = 8513 
Wasted_Row = 2383 
Idle = 90787 

BW Util Bottlenecks: 
RCDc_limit = 0 
RCDWRc_limit = 3559 
WTRc_limit = 0 
RTWc_limit = 0 
CCDLc_limit = 7972 
rwq = 0 
CCDLc_limit_alone = 7972 
WTRc_limit_alone = 0 
RTWc_limit_alone = 0 

Commands details: 
total_CMD = 131907 
n_nop = 100866 
Read = 0 
Write = 0 
L2_Alloc = 0 
L2_WB = 30224 
n_act = 1422 
n_pre = 1406 
n_ref = 0 
n_req = 7556 
total_req = 30224 

Dual Bus Interface Util: 
issued_total_row = 2828 
issued_total_col = 30224 
Row_Bus_Util =  0.021439 
CoL_Bus_Util = 0.229131 
Either_Row_CoL_Bus_Util = 0.235325 
Issued_on_Two_Bus_Simul_Util = 0.015246 
issued_two_Eff = 0.064785 
queue_avg = 4.044994 


dram_util_bins: 0 0 0 0 0 0 0 0 0 0
dram_eff_bins: 0 0 0 0 0 0 0 0 0 0
mrqq: max=64 avg=4.04499
Memory Partition 31: 
Cache L2_bank_062:

Cache L2_bank_063:

In Dram Latency Queue (total = 5): 
DRAM[31]: 16 bks, busW=16 BL=2 CL=12, tRRD=3 tCCD=1, tRCD=12 tRAS=28 tRP=12 tRC=40
n_cmd=131907 n_nop=100532 n_act=1446 n_pre=1430 n_ref_event=0 n_req=7625 n_rd=0 n_rd_L2_A=0 n_write=0 n_wr_bk=30500 bw_util=0.2312
n_activity=45358 dram_eff=0.6724
bk0: 0a 120401i bk1: 0a 120461i bk2: 0a 119359i bk3: 0a 120010i bk4: 0a 117743i bk5: 0a 118172i bk6: 0a 116778i bk7: 0a 115772i bk8: 0a 116005i bk9: 0a 118326i bk10: 0a 121283i bk11: 0a 122519i bk12: 0a 121766i bk13: 0a 120938i bk14: 0a 120845i bk15: 0a 121063i 

------------------------------------------------------------------------

Row_Buffer_Locality = 0.810361
Row_Buffer_Locality_read = -nan
Row_Buffer_Locality_write = 0.810361
Bank_Level_Parallism = 4.961260
Bank_Level_Parallism_Col = 4.646428
Bank_Level_Parallism_Ready = 3.778295
write_to_read_ratio_blp_rw_average = 1.000000
GrpLevelPara = 2.337558 

BW Util details:
bwutil = 0.231224 
total_CMD = 131907 
util_bw = 30500 
Wasted_Col = 8623 
Wasted_Row = 2539 
Idle = 90245 

BW Util Bottlenecks: 
RCDc_limit = 0 
RCDWRc_limit = 3740 
WTRc_limit = 0 
RTWc_limit = 0 
CCDLc_limit = 7638 
rwq = 0 
CCDLc_limit_alone = 7638 
WTRc_limit_alone = 0 
RTWc_limit_alone = 0 

Commands details: 
total_CMD = 131907 
n_nop = 100532 
Read = 0 
Write = 0 
L2_Alloc = 0 
L2_WB = 30500 
n_act = 1446 
n_pre = 1430 
n_ref = 0 
n_req = 7625 
total_req = 30500 

Dual Bus Interface Util: 
issued_total_row = 2876 
issued_total_col = 30500 
Row_Bus_Util =  0.021803 
CoL_Bus_Util = 0.231224 
Either_Row_CoL_Bus_Util = 0.237857 
Issued_on_Two_Bus_Simul_Util = 0.015170 
issued_two_Eff = 0.063777 
queue_avg = 4.041575 


dram_util_bins: 0 0 0 0 0 0 0 0 0 0
dram_eff_bins: 0 0 0 0 0 0 0 0 0 0
mrqq: max=64 avg=4.04157

========= L2 cache stats =========
L2_cache_bank[0]: Access = 28376, Miss = 16447, Miss_rate = 0.580, Pending_hits = 0, Reservation_fails = 0
L2_cache_bank[1]: Access = 28794, Miss = 16487, Miss_rate = 0.573, Pending_hits = 0, Reservation_fails = 0
L2_cache_bank[2]: Access = 28364, Miss = 16430, Miss_rate = 0.579, Pending_hits = 0, Reservation_fails = 0
L2_cache_bank[3]: Access = 28724, Miss = 16491, Miss_rate = 0.574, Pending_hits = 0, Reservation_fails = 0
L2_cache_bank[4]: Access = 28338, Miss = 16436, Miss_rate = 0.580, Pending_hits = 0, Reservation_fails = 0
L2_cache_bank[5]: Access = 28735, Miss = 16501, Miss_rate = 0.574, Pending_hits = 0, Reservation_fails = 0
L2_cache_bank[6]: Access = 28322, Miss = 16428, Miss_rate = 0.580, Pending_hits = 0, Reservation_fails = 0
L2_cache_bank[7]: Access = 28738, Miss = 16498, Miss_rate = 0.574, Pending_hits = 0, Reservation_fails = 0
L2_cache_bank[8]: Access = 28350, Miss = 16420, Miss_rate = 0.579, Pending_hits = 0, Reservation_fails = 0
L2_cache_bank[9]: Access = 28743, Miss = 16496, Miss_rate = 0.574, Pending_hits = 0, Reservation_fails = 0
L2_cache_bank[10]: Access = 28341, Miss = 16434, Miss_rate = 0.580, Pending_hits = 0, Reservation_fails = 0
L2_cache_bank[11]: Access = 28778, Miss = 16472, Miss_rate = 0.572, Pending_hits = 0, Reservation_fails = 0
L2_cache_bank[12]: Access = 28429, Miss = 16439, Miss_rate = 0.578, Pending_hits = 0, Reservation_fails = 0
L2_cache_bank[13]: Access = 28663, Miss = 16453, Miss_rate = 0.574, Pending_hits = 0, Reservation_fails = 0
L2_cache_bank[14]: Access = 28522, Miss = 16404, Miss_rate = 0.575, Pending_hits = 0, Reservation_fails = 0
L2_cache_bank[15]: Access = 28698, Miss = 16479, Miss_rate = 0.574, Pending_hits = 0, Reservation_fails = 0
L2_cache_bank[16]: Access = 28512, Miss = 16397, Miss_rate = 0.575, Pending_hits = 0, Reservation_fails = 0
L2_cache_bank[17]: Access = 28699, Miss = 16500, Miss_rate = 0.575, Pending_hits = 0, Reservation_fails = 0
L2_cache_bank[18]: Access = 28539, Miss = 16360, Miss_rate = 0.573, Pending_hits = 0, Reservation_fails = 0
L2_cache_bank[19]: Access = 28372, Miss = 16528, Miss_rate = 0.583, Pending_hits = 0, Reservation_fails = 0
L2_cache_bank[20]: Access = 28610, Miss = 16361, Miss_rate = 0.572, Pending_hits = 0, Reservation_fails = 0
L2_cache_bank[21]: Access = 28232, Miss = 16520, Miss_rate = 0.585, Pending_hits = 0, Reservation_fails = 0
L2_cache_bank[22]: Access = 28561, Miss = 16369, Miss_rate = 0.573, Pending_hits = 0, Reservation_fails = 0
L2_cache_bank[23]: Access = 28206, Miss = 16506, Miss_rate = 0.585, Pending_hits = 0, Reservation_fails = 0
L2_cache_bank[24]: Access = 28649, Miss = 16381, Miss_rate = 0.572, Pending_hits = 0, Reservation_fails = 0
L2_cache_bank[25]: Access = 28161, Miss = 16511, Miss_rate = 0.586, Pending_hits = 0, Reservation_fails = 0
L2_cache_bank[26]: Access = 28667, Miss = 16397, Miss_rate = 0.572, Pending_hits = 0, Reservation_fails = 0
L2_cache_bank[27]: Access = 28189, Miss = 16504, Miss_rate = 0.585, Pending_hits = 0, Reservation_fails = 0
L2_cache_bank[28]: Access = 28671, Miss = 16397, Miss_rate = 0.572, Pending_hits = 0, Reservation_fails = 0
L2_cache_bank[29]: Access = 28214, Miss = 16519, Miss_rate = 0.585, Pending_hits = 0, Reservation_fails = 0
L2_cache_bank[30]: Access = 28615, Miss = 16364, Miss_rate = 0.572, Pending_hits = 0, Reservation_fails = 0
L2_cache_bank[31]: Access = 28215, Miss = 16530, Miss_rate = 0.586, Pending_hits = 0, Reservation_fails = 0
L2_cache_bank[32]: Access = 28555, Miss = 16302, Miss_rate = 0.571, Pending_hits = 0, Reservation_fails = 0
L2_cache_bank[33]: Access = 28218, Miss = 16532, Miss_rate = 0.586, Pending_hits = 0, Reservation_fails = 0
L2_cache_bank[34]: Access = 28569, Miss = 16287, Miss_rate = 0.570, Pending_hits = 0, Reservation_fails = 0
L2_cache_bank[35]: Access = 28228, Miss = 16545, Miss_rate = 0.586, Pending_hits = 0, Reservation_fails = 0
L2_cache_bank[36]: Access = 28588, Miss = 16287, Miss_rate = 0.570, Pending_hits = 0, Reservation_fails = 0
L2_cache_bank[37]: Access = 28227, Miss = 16536, Miss_rate = 0.586, Pending_hits = 0, Reservation_fails = 0
L2_cache_bank[38]: Access = 28595, Miss = 16275, Miss_rate = 0.569, Pending_hits = 0, Reservation_fails = 0
L2_cache_bank[39]: Access = 28226, Miss = 16524, Miss_rate = 0.585, Pending_hits = 0, Reservation_fails = 0
L2_cache_bank[40]: Access = 28722, Miss = 16385, Miss_rate = 0.570, Pending_hits = 0, Reservation_fails = 0
L2_cache_bank[41]: Access = 28235, Miss = 16516, Miss_rate = 0.585, Pending_hits = 0, Reservation_fails = 0
L2_cache_bank[42]: Access = 28725, Miss = 16428, Miss_rate = 0.572, Pending_hits = 0, Reservation_fails = 0
L2_cache_bank[43]: Access = 28250, Miss = 16505, Miss_rate = 0.584, Pending_hits = 0, Reservation_fails = 0
L2_cache_bank[44]: Access = 28716, Miss = 16447, Miss_rate = 0.573, Pending_hits = 0, Reservation_fails = 0
L2_cache_bank[45]: Access = 28270, Miss = 16450, Miss_rate = 0.582, Pending_hits = 0, Reservation_fails = 0
L2_cache_bank[46]: Access = 28716, Miss = 16456, Miss_rate = 0.573, Pending_hits = 0, Reservation_fails = 0
L2_cache_bank[47]: Access = 28242, Miss = 16432, Miss_rate = 0.582, Pending_hits = 0, Reservation_fails = 0
L2_cache_bank[48]: Access = 28720, Miss = 16454, Miss_rate = 0.573, Pending_hits = 0, Reservation_fails = 0
L2_cache_bank[49]: Access = 28271, Miss = 16433, Miss_rate = 0.581, Pending_hits = 0, Reservation_fails = 0
L2_cache_bank[50]: Access = 28725, Miss = 16446, Miss_rate = 0.573, Pending_hits = 0, Reservation_fails = 0
L2_cache_bank[51]: Access = 28287, Miss = 16463, Miss_rate = 0.582, Pending_hits = 0, Reservation_fails = 0
L2_cache_bank[52]: Access = 28741, Miss = 16442, Miss_rate = 0.572, Pending_hits = 0, Reservation_fails = 0
L2_cache_bank[53]: Access = 28297, Miss = 16496, Miss_rate = 0.583, Pending_hits = 0, Reservation_fails = 0
L2_cache_bank[54]: Access = 28723, Miss = 16438, Miss_rate = 0.572, Pending_hits = 0, Reservation_fails = 0
L2_cache_bank[55]: Access = 28300, Miss = 16528, Miss_rate = 0.584, Pending_hits = 0, Reservation_fails = 0
L2_cache_bank[56]: Access = 28722, Miss = 16433, Miss_rate = 0.572, Pending_hits = 0, Reservation_fails = 0
L2_cache_bank[57]: Access = 28306, Miss = 16537, Miss_rate = 0.584, Pending_hits = 0, Reservation_fails = 0
L2_cache_bank[58]: Access = 28718, Miss = 16446, Miss_rate = 0.573, Pending_hits = 0, Reservation_fails = 0
L2_cache_bank[59]: Access = 28324, Miss = 16499, Miss_rate = 0.583, Pending_hits = 0, Reservation_fails = 0
L2_cache_bank[60]: Access = 28714, Miss = 16471, Miss_rate = 0.574, Pending_hits = 0, Reservation_fails = 0
L2_cache_bank[61]: Access = 28347, Miss = 16484, Miss_rate = 0.582, Pending_hits = 0, Reservation_fails = 0
L2_cache_bank[62]: Access = 28752, Miss = 16489, Miss_rate = 0.573, Pending_hits = 0, Reservation_fails = 0
L2_cache_bank[63]: Access = 28325, Miss = 16457, Miss_rate = 0.581, Pending_hits = 0, Reservation_fails = 0
L2_total_cache_accesses = 1823381
L2_total_cache_misses = 1052882
L2_total_cache_miss_rate = 0.5774
L2_total_cache_pending_hits = 0
L2_total_cache_reservation_fails = 0
L2_total_cache_breakdown:
	L2_cache_stats_breakdown[GLOBAL_ACC_R][HIT] = 36293
	L2_cache_stats_breakdown[GLOBAL_ACC_R][HIT_RESERVED] = 0
	L2_cache_stats_breakdown[GLOBAL_ACC_R][MISS] = 0
	L2_cache_stats_breakdown[GLOBAL_ACC_R][RESERVATION_FAIL] = 0
	L2_cache_stats_breakdown[GLOBAL_ACC_R][SECTOR_MISS] = 0
	L2_cache_stats_breakdown[LOCAL_ACC_R][HIT] = 0
	L2_cache_stats_breakdown[LOCAL_ACC_R][HIT_RESERVED] = 0
	L2_cache_stats_breakdown[LOCAL_ACC_R][MISS] = 0
	L2_cache_stats_breakdown[LOCAL_ACC_R][RESERVATION_FAIL] = 0
	L2_cache_stats_breakdown[LOCAL_ACC_R][SECTOR_MISS] = 0
	L2_cache_stats_breakdown[CONST_ACC_R][HIT] = 0
	L2_cache_stats_breakdown[CONST_ACC_R][HIT_RESERVED] = 0
	L2_cache_stats_breakdown[CONST_ACC_R][MISS] = 0
	L2_cache_stats_breakdown[CONST_ACC_R][RESERVATION_FAIL] = 0
	L2_cache_stats_breakdown[CONST_ACC_R][SECTOR_MISS] = 0
	L2_cache_stats_breakdown[TEXTURE_ACC_R][HIT] = 62112
	L2_cache_stats_breakdown[TEXTURE_ACC_R][HIT_RESERVED] = 0
	L2_cache_stats_breakdown[TEXTURE_ACC_R][MISS] = 0
	L2_cache_stats_breakdown[TEXTURE_ACC_R][RESERVATION_FAIL] = 0
	L2_cache_stats_breakdown[TEXTURE_ACC_R][SECTOR_MISS] = 0
	L2_cache_stats_breakdown[GLOBAL_ACC_W][HIT] = 672094
	L2_cache_stats_breakdown[GLOBAL_ACC_W][HIT_RESERVED] = 0
	L2_cache_stats_breakdown[GLOBAL_ACC_W][MISS] = 27127
	L2_cache_stats_breakdown[GLOBAL_ACC_W][RESERVATION_FAIL] = 0
	L2_cache_stats_breakdown[GLOBAL_ACC_W][SECTOR_MISS] = 1025755
	L2_cache_stats_breakdown[LOCAL_ACC_W][HIT] = 0
	L2_cache_stats_breakdown[LOCAL_ACC_W][HIT_RESERVED] = 0
	L2_cache_stats_breakdown[LOCAL_ACC_W][MISS] = 0
	L2_cache_stats_breakdown[LOCAL_ACC_W][RESERVATION_FAIL] = 0
	L2_cache_stats_breakdown[LOCAL_ACC_W][SECTOR_MISS] = 0
	L2_cache_stats_breakdown[L1_WRBK_ACC][HIT] = 0
	L2_cache_stats_breakdown[L1_WRBK_ACC][HIT_RESERVED] = 0
	L2_cache_stats_breakdown[L1_WRBK_ACC][MISS] = 0
	L2_cache_stats_breakdown[L1_WRBK_ACC][RESERVATION_FAIL] = 0
	L2_cache_stats_breakdown[L1_WRBK_ACC][SECTOR_MISS] = 0
	L2_cache_stats_breakdown[L2_WRBK_ACC][HIT] = 0
	L2_cache_stats_breakdown[L2_WRBK_ACC][HIT_RESERVED] = 0
	L2_cache_stats_breakdown[L2_WRBK_ACC][MISS] = 0
	L2_cache_stats_breakdown[L2_WRBK_ACC][RESERVATION_FAIL] = 0
	L2_cache_stats_breakdown[L2_WRBK_ACC][SECTOR_MISS] = 0
	L2_cache_stats_breakdown[INST_ACC_R][HIT] = 0
	L2_cache_stats_breakdown[INST_ACC_R][HIT_RESERVED] = 0
	L2_cache_stats_breakdown[INST_ACC_R][MISS] = 0
	L2_cache_stats_breakdown[INST_ACC_R][RESERVATION_FAIL] = 0
	L2_cache_stats_breakdown[INST_ACC_R][SECTOR_MISS] = 0
	L2_cache_stats_breakdown[L1_WR_ALLOC_R][HIT] = 0
	L2_cache_stats_breakdown[L1_WR_ALLOC_R][HIT_RESERVED] = 0
	L2_cache_stats_breakdown[L1_WR_ALLOC_R][MISS] = 0
	L2_cache_stats_breakdown[L1_WR_ALLOC_R][RESERVATION_FAIL] = 0
	L2_cache_stats_breakdown[L1_WR_ALLOC_R][SECTOR_MISS] = 0
	L2_cache_stats_breakdown[L2_WR_ALLOC_R][HIT] = 0
	L2_cache_stats_breakdown[L2_WR_ALLOC_R][HIT_RESERVED] = 0
	L2_cache_stats_breakdown[L2_WR_ALLOC_R][MISS] = 0
	L2_cache_stats_breakdown[L2_WR_ALLOC_R][RESERVATION_FAIL] = 0
	L2_cache_stats_breakdown[L2_WR_ALLOC_R][SECTOR_MISS] = 0
	L2_cache_stats_breakdown[GLOBAL_ACC_R][TOTAL_ACCESS] = 36293
	L2_cache_stats_breakdown[TEXTURE_ACC_R][TOTAL_ACCESS] = 62112
	L2_cache_stats_breakdown[GLOBAL_ACC_W][TOTAL_ACCESS] = 1724976
L2_total_cache_reservation_fail_breakdown:
L2_cache_data_port_util = 0.069
L2_cache_fill_port_util = 0.000

icnt_total_pkts_mem_to_simt=1924757
icnt_total_pkts_simt_to_mem=1878173
LD_mem_lat_dist  0 0 0 0 0 0 0 0 0 0 0 0 0 0 0 0 0 0 0 0 0 0 0 0 0 0 0
ST_mem_lat_dist  0 0 0 0 0 0 0 0 0 0 0 0 0 0 0 0 0 0 0 0 0 0 0 0 0 0 0
----------------------------Interconnect-DETAILS--------------------------------
Req_Network_injected_packets_num = 1878173
Req_Network_cycles = 175670
Req_Network_injected_packets_per_cycle =      10.6915 
Req_Network_conflicts_per_cycle =       4.1692
Req_Network_conflicts_per_cycle_util =       4.4288
Req_Bank_Level_Parallism =      11.3573
Req_Network_in_buffer_full_per_cycle =       0.0300
Req_Network_in_buffer_avg_util =       6.0549
Req_Network_out_buffer_full_per_cycle =       0.3366
Req_Network_out_buffer_avg_util =      38.9448

Reply_Network_injected_packets_num = 1924757
Reply_Network_cycles = 175670
Reply_Network_injected_packets_per_cycle =       10.9567
Reply_Network_conflicts_per_cycle =        5.1430
Reply_Network_conflicts_per_cycle_util =       5.5079
Reply_Bank_Level_Parallism =      11.7342
Reply_Network_in_buffer_full_per_cycle =       0.0043
Reply_Network_in_buffer_avg_util =       3.3681
Reply_Network_out_buffer_full_per_cycle =       0.0000
Reply_Network_out_buffer_avg_util =       0.1370
----------------------------END-of-Interconnect-DETAILS-------------------------


gpgpu_simulation_time = 0 days, 0 hrs, 27 min, 1 sec (1621 sec)
gpgpu_simulation_rate = 145109 (inst/sec)
gpgpu_simulation_rate = 108 (cycle/sec)
gpgpu_silicon_slowdown = 10481481x
GPGPU-Sim: synchronize waiting for inactive GPU simulation
GPGPU-Sim API: Stream Manager State
GPGPU-Sim: detected inactive GPU simulation thread
GPGPU-Sim: synchronize waiting for inactive GPU simulation
GPGPU-Sim API: Stream Manager State
GPGPU-Sim: detected inactive GPU simulation thread
GPGPU-Sim: synchronize waiting for inactive GPU simulation
GPGPU-Sim API: Stream Manager State
GPGPU-Sim: detected inactive GPU simulation thread
GPGPU-Sim: *** exit detected ***
