

        *** GPGPU-Sim Simulator Version 4.0.0  [build gpgpu-sim_git-commit-ffe0a1a00e984ecce9bf36e17ab94c4de0de8108_modified_0.0] ***


GPGPU-Sim PTX: simulation mode 0 (can change with PTX_SIM_MODE_FUNC environment variable:
               1=functional simulation only, 0=detailed performance simulator)
GPGPU-Sim PTX: overriding embedded ptx with ptx file (PTX_SIM_USE_PTX_FILE is set)
GPGPU-Sim: Configuration options:

-save_embedded_ptx                      0 # saves ptx files embedded in binary as <n>.ptx
-keep                                   0 # keep intermediate files created by GPGPU-Sim when interfacing with external programs
-gpgpu_ptx_save_converted_ptxplus                    0 # Saved converted ptxplus to a file
-gpgpu_occupancy_sm_number                   70 # The SM number to pass to ptxas when getting register usage for computing GPU occupancy. This parameter is required in the config.
-ptx_opcode_latency_int      4,13,4,5,145,21 # Opcode latencies for integers <ADD,MAX,MUL,MAD,DIV,SHFL>Default 1,1,19,25,145,32
-ptx_opcode_latency_fp          4,13,4,5,39 # Opcode latencies for single precision floating points <ADD,MAX,MUL,MAD,DIV>Default 1,1,1,1,30
-ptx_opcode_latency_dp         8,19,8,8,330 # Opcode latencies for double precision floating points <ADD,MAX,MUL,MAD,DIV>Default 8,8,8,8,335
-ptx_opcode_latency_sfu                  100 # Opcode latencies for SFU instructionsDefault 8
-ptx_opcode_latency_tesnor                   64 # Opcode latencies for Tensor instructionsDefault 64
-ptx_opcode_initiation_int          2,2,2,2,8,4 # Opcode initiation intervals for integers <ADD,MAX,MUL,MAD,DIV,SHFL>Default 1,1,4,4,32,4
-ptx_opcode_initiation_fp            2,2,2,2,4 # Opcode initiation intervals for single precision floating points <ADD,MAX,MUL,MAD,DIV>Default 1,1,1,1,5
-ptx_opcode_initiation_dp          4,4,4,4,130 # Opcode initiation intervals for double precision floating points <ADD,MAX,MUL,MAD,DIV>Default 8,8,8,8,130
-ptx_opcode_initiation_sfu                    8 # Opcode initiation intervals for sfu instructionsDefault 8
-ptx_opcode_initiation_tensor                   64 # Opcode initiation intervals for tensor instructionsDefault 64
-cdp_latency         7200,8000,100,12000,1600 # CDP API latency <cudaStreamCreateWithFlags, cudaGetParameterBufferV2_init_perWarp, cudaGetParameterBufferV2_perKernel, cudaLaunchDeviceV2_init_perWarp, cudaLaunchDevicV2_perKernel>Default 7200,8000,100,12000,1600
-network_mode                           2 # Interconnection network mode
-inter_config_file                   mesh # Interconnection network config file
-icnt_in_buffer_limit                  512 # in_buffer_limit
-icnt_out_buffer_limit                  512 # out_buffer_limit
-icnt_subnets                           2 # subnets
-icnt_arbiter_algo                      1 # arbiter_algo
-icnt_verbose                           0 # inct_verbose
-icnt_grant_cycles                      1 # grant_cycles
-gpgpu_ptx_use_cuobjdump                    1 # Use cuobjdump to extract ptx and sass from binaries
-gpgpu_experimental_lib_support                    0 # Try to extract code from cuda libraries [Broken because of unknown cudaGetExportTable]
-checkpoint_option                      0 #  checkpointing flag (0 = no checkpoint)
-checkpoint_kernel                      1 #  checkpointing during execution of which kernel (1- 1st kernel)
-checkpoint_CTA                         0 #  checkpointing after # of CTA (< less than total CTA)
-resume_option                          0 #  resume flag (0 = no resume)
-resume_kernel                          0 #  Resume from which kernel (1= 1st kernel)
-resume_CTA                             0 #  resume from which CTA 
-checkpoint_CTA_t                       0 #  resume from which CTA 
-checkpoint_insn_Y                      0 #  resume from which CTA 
-gpgpu_ptx_convert_to_ptxplus                    0 # Convert SASS (native ISA) to ptxplus and run ptxplus
-gpgpu_ptx_force_max_capability                   70 # Force maximum compute capability
-gpgpu_ptx_inst_debug_to_file                    0 # Dump executed instructions' debug information to file
-gpgpu_ptx_inst_debug_file       inst_debug.txt # Executed instructions' debug output file
-gpgpu_ptx_inst_debug_thread_uid                    1 # Thread UID for executed instructions' debug output
-gpgpu_n_mem_for_l2wb_pcommit                   32 # number of memory modules (e.g. memory controllers) in gpu
-gpgpu_n_sub_partition_per_mchannel_for_l2wb_pcommit                    2 # number of memory subpartition in each memory module
-gpgpu_dl2_bsize_for_l2wb_pcommit                  128 # default 128 bytes
-gpgpu_simd_model                       1 # 1 = post-dominator
-gpgpu_shader_core_pipeline              2048:32 # shader core pipeline config, i.e., {<nthread>:<warpsize>}
-gpgpu_tex_cache:l1  N:4:128:256,L:R:m:N:L,T:512:8,128:2 # per-shader L1 texture cache  (READ-ONLY) config  {<nsets>:<bsize>:<assoc>,<rep>:<wr>:<alloc>:<wr_alloc>,<mshr>:<N>:<merge>,<mq>:<rf>}
-gpgpu_const_cache:l1 N:128:64:8,L:R:f:N:L,S:2:64,4 # per-shader L1 constant memory cache  (READ-ONLY) config  {<nsets>:<bsize>:<assoc>,<rep>:<wr>:<alloc>:<wr_alloc>,<mshr>:<N>:<merge>,<mq>} 
-gpgpu_cache:il1     N:64:128:16,L:R:f:N:L,S:2:48,4 # shader L1 instruction cache config  {<nsets>:<bsize>:<assoc>,<rep>:<wr>:<alloc>:<wr_alloc>,<mshr>:<N>:<merge>,<mq>} 
-gpgpu_cache:dl1     S:1:128:256,L:L:s:N:L,A:256:8,16:0,32 # per-shader L1 data cache config  {<nsets>:<bsize>:<assoc>,<rep>:<wr>:<alloc>:<wr_alloc>,<mshr>:<N>:<merge>,<mq> | none}
-gpgpu_l1_banks                         4 # The number of L1 cache banks
-gpgpu_l1_banks_byte_interleaving                   32 # l1 banks byte interleaving granularity
-gpgpu_l1_banks_hashing_function                    0 # l1 banks hashing function
-gpgpu_l1_latency                      20 # L1 Hit Latency
-gpgpu_smem_latency                    20 # smem Latency
-gpgpu_cache:dl1PrefL1                 none # per-shader L1 data cache config  {<nsets>:<bsize>:<assoc>,<rep>:<wr>:<alloc>:<wr_alloc>,<mshr>:<N>:<merge>,<mq> | none}
-gpgpu_cache:dl1PrefShared                 none # per-shader L1 data cache config  {<nsets>:<bsize>:<assoc>,<rep>:<wr>:<alloc>:<wr_alloc>,<mshr>:<N>:<merge>,<mq> | none}
-gpgpu_gmem_skip_L1D                    0 # global memory access skip L1D cache (implements -Xptxas -dlcm=cg, default=no skip)
-gpgpu_perfect_mem                      0 # enable perfect memory mode (no cache miss)
-n_regfile_gating_group                    4 # group of lanes that should be read/written together)
-gpgpu_clock_gated_reg_file                    0 # enable clock gated reg file for power calculations
-gpgpu_clock_gated_lanes                    0 # enable clock gated lanes for power calculations
-gpgpu_shader_registers                65536 # Number of registers per shader core. Limits number of concurrent CTAs. (default 8192)
-gpgpu_registers_per_block                65536 # Maximum number of registers per CTA. (default 8192)
-gpgpu_ignore_resources_limitation                    0 # gpgpu_ignore_resources_limitation (default 0)
-gpgpu_shader_cta                      32 # Maximum number of concurrent CTAs in shader (default 8)
-gpgpu_num_cta_barriers                   16 # Maximum number of named barriers per CTA (default 16)
-gpgpu_n_clusters                      80 # number of processing clusters
-gpgpu_n_cores_per_cluster                    1 # number of simd cores per cluster
-gpgpu_n_cluster_ejection_buffer_size                   32 # number of packets in ejection buffer
-gpgpu_n_ldst_response_buffer_size                    2 # number of response packets in ld/st unit ejection buffer
-gpgpu_shmem_per_block                65536 # Size of shared memory per thread block or CTA (default 48kB)
-gpgpu_shmem_size                   98304 # Size of shared memory per shader core (default 16kB)
-gpgpu_adaptive_cache_config            536870913 # adaptive_cache_config
-gpgpu_shmem_sizeDefault                98304 # Size of shared memory per shader core (default 16kB)
-gpgpu_shmem_size_PrefL1                16384 # Size of shared memory per shader core (default 16kB)
-gpgpu_shmem_size_PrefShared                16384 # Size of shared memory per shader core (default 16kB)
-gpgpu_shmem_num_banks                   32 # Number of banks in the shared memory in each shader core (default 16)
-gpgpu_shmem_limited_broadcast                    0 # Limit shared memory to do one broadcast per cycle (default on)
-gpgpu_shmem_warp_parts                    1 # Number of portions a warp is divided into for shared memory bank conflict check 
-gpgpu_mem_unit_ports                    1 # The number of memory transactions allowed per core cycle
-gpgpu_shmem_warp_parts                    1 # Number of portions a warp is divided into for shared memory bank conflict check 
-gpgpu_warpdistro_shader                   -1 # Specify which shader core to collect the warp size distribution from
-gpgpu_warp_issue_shader                    0 # Specify which shader core to collect the warp issue distribution from
-gpgpu_local_mem_map                    1 # Mapping from local memory space address to simulated GPU physical address space (default = enabled)
-gpgpu_num_reg_banks                   16 # Number of register banks (default = 8)
-gpgpu_reg_bank_use_warp_id                    0 # Use warp ID in mapping registers to banks (default = off)
-gpgpu_sub_core_model                    1 # Sub Core Volta/Pascal model (default = off)
-gpgpu_enable_specialized_operand_collector                    0 # enable_specialized_operand_collector
-gpgpu_operand_collector_num_units_sp                    4 # number of collector units (default = 4)
-gpgpu_operand_collector_num_units_dp                    0 # number of collector units (default = 0)
-gpgpu_operand_collector_num_units_sfu                    4 # number of collector units (default = 4)
-gpgpu_operand_collector_num_units_int                    0 # number of collector units (default = 0)
-gpgpu_operand_collector_num_units_tensor_core                    4 # number of collector units (default = 4)
-gpgpu_operand_collector_num_units_mem                    2 # number of collector units (default = 2)
-gpgpu_operand_collector_num_units_gen                    8 # number of collector units (default = 0)
-gpgpu_operand_collector_num_in_ports_sp                    1 # number of collector unit in ports (default = 1)
-gpgpu_operand_collector_num_in_ports_dp                    0 # number of collector unit in ports (default = 0)
-gpgpu_operand_collector_num_in_ports_sfu                    1 # number of collector unit in ports (default = 1)
-gpgpu_operand_collector_num_in_ports_int                    0 # number of collector unit in ports (default = 0)
-gpgpu_operand_collector_num_in_ports_tensor_core                    1 # number of collector unit in ports (default = 1)
-gpgpu_operand_collector_num_in_ports_mem                    1 # number of collector unit in ports (default = 1)
-gpgpu_operand_collector_num_in_ports_gen                    8 # number of collector unit in ports (default = 0)
-gpgpu_operand_collector_num_out_ports_sp                    1 # number of collector unit in ports (default = 1)
-gpgpu_operand_collector_num_out_ports_dp                    0 # number of collector unit in ports (default = 0)
-gpgpu_operand_collector_num_out_ports_sfu                    1 # number of collector unit in ports (default = 1)
-gpgpu_operand_collector_num_out_ports_int                    0 # number of collector unit in ports (default = 0)
-gpgpu_operand_collector_num_out_ports_tensor_core                    1 # number of collector unit in ports (default = 1)
-gpgpu_operand_collector_num_out_ports_mem                    1 # number of collector unit in ports (default = 1)
-gpgpu_operand_collector_num_out_ports_gen                    8 # number of collector unit in ports (default = 0)
-gpgpu_coalesce_arch                   60 # Coalescing arch (GT200 = 13, Fermi = 20)
-gpgpu_num_sched_per_core                    4 # Number of warp schedulers per core
-gpgpu_max_insn_issue_per_warp                    1 # Max number of instructions that can be issued per warp in one cycle by scheduler (either 1 or 2)
-gpgpu_dual_issue_diff_exec_units                    1 # should dual issue use two different execution unit resources (Default = 1)
-gpgpu_simt_core_sim_order                    1 # Select the simulation order of cores in a cluster (0=Fix, 1=Round-Robin)
-gpgpu_pipeline_widths 4,4,4,4,4,4,4,4,4,4,8,4,4 # Pipeline widths ID_OC_SP,ID_OC_DP,ID_OC_INT,ID_OC_SFU,ID_OC_MEM,OC_EX_SP,OC_EX_DP,OC_EX_INT,OC_EX_SFU,OC_EX_MEM,EX_WB,ID_OC_TENSOR_CORE,OC_EX_TENSOR_CORE
-gpgpu_tensor_core_avail                    1 # Tensor Core Available (default=0)
-gpgpu_num_sp_units                     4 # Number of SP units (default=1)
-gpgpu_num_dp_units                     4 # Number of DP units (default=0)
-gpgpu_num_int_units                    4 # Number of INT units (default=0)
-gpgpu_num_sfu_units                    4 # Number of SF units (default=1)
-gpgpu_num_tensor_core_units                    4 # Number of tensor_core units (default=1)
-gpgpu_num_mem_units                    1 # Number if ldst units (default=1) WARNING: not hooked up to anything
-gpgpu_scheduler                      gto # Scheduler configuration: < lrr | gto | two_level_active > If two_level_active:<num_active_warps>:<inner_prioritization>:<outer_prioritization>For complete list of prioritization values see shader.h enum scheduler_prioritization_typeDefault: gto
-gpgpu_concurrent_kernel_sm                    0 # Support concurrent kernels on a SM (default = disabled)
-gpgpu_perfect_inst_const_cache                    1 # perfect inst and const cache mode, so all inst and const hits in the cache(default = disabled)
-gpgpu_inst_fetch_throughput                    4 # the number of fetched intruction per warp each cycle
-gpgpu_reg_file_port_throughput                    2 # the number ports of the register file
-specialized_unit_1         0,4,4,4,4,BRA # specialized unit config {<enabled>,<num_units>:<latency>:<initiation>,<ID_OC_SPEC>:<OC_EX_SPEC>,<NAME>}
-specialized_unit_2         0,4,4,4,4,BRA # specialized unit config {<enabled>,<num_units>:<latency>:<initiation>,<ID_OC_SPEC>:<OC_EX_SPEC>,<NAME>}
-specialized_unit_3         0,4,4,4,4,BRA # specialized unit config {<enabled>,<num_units>:<latency>:<initiation>,<ID_OC_SPEC>:<OC_EX_SPEC>,<NAME>}
-specialized_unit_4         0,4,4,4,4,BRA # specialized unit config {<enabled>,<num_units>:<latency>:<initiation>,<ID_OC_SPEC>:<OC_EX_SPEC>,<NAME>}
-specialized_unit_5         0,4,4,4,4,BRA # specialized unit config {<enabled>,<num_units>:<latency>:<initiation>,<ID_OC_SPEC>:<OC_EX_SPEC>,<NAME>}
-specialized_unit_6         0,4,4,4,4,BRA # specialized unit config {<enabled>,<num_units>:<latency>:<initiation>,<ID_OC_SPEC>:<OC_EX_SPEC>,<NAME>}
-specialized_unit_7         0,4,4,4,4,BRA # specialized unit config {<enabled>,<num_units>:<latency>:<initiation>,<ID_OC_SPEC>:<OC_EX_SPEC>,<NAME>}
-specialized_unit_8         0,4,4,4,4,BRA # specialized unit config {<enabled>,<num_units>:<latency>:<initiation>,<ID_OC_SPEC>:<OC_EX_SPEC>,<NAME>}
-gpgpu_perf_sim_memcpy                    1 # Fill the L2 cache on memcpy
-gpgpu_simple_dram_model                    0 # simple_dram_model with fixed latency and BW
-gpgpu_dram_scheduler                    1 # 0 = fifo, 1 = FR-FCFS (defaul)
-gpgpu_dram_partition_queues          64:64:64:64 # i2$:$2d:d2$:$2i
-l2_ideal                               0 # Use a ideal L2 cache that always hit
-gpgpu_cache:dl2     S:32:128:24,L:B:m:L:P,A:192:4,32:0,32 # unified banked L2 data cache config  {<nsets>:<bsize>:<assoc>,<rep>:<wr>:<alloc>:<wr_alloc>,<mshr>:<N>:<merge>,<mq>}
-gpgpu_cache:dl2_texture_only                    0 # L2 cache used for texture only
-gpgpu_n_mem                           32 # number of memory modules (e.g. memory controllers) in gpu
-gpgpu_n_sub_partition_per_mchannel                    2 # number of memory subpartition in each memory module
-gpgpu_n_mem_per_ctrlr                    1 # number of memory chips per memory controller
-gpgpu_memlatency_stat                   14 # track and display latency statistics 0x2 enables MC, 0x4 enables queue logs
-gpgpu_frfcfs_dram_sched_queue_size                   64 # 0 = unlimited (default); # entries per chip
-gpgpu_dram_return_queue_size                  192 # 0 = unlimited (default); # entries per chip
-gpgpu_dram_buswidth                   16 # default = 4 bytes (8 bytes per cycle at DDR)
-gpgpu_dram_burst_length                    2 # Burst length of each DRAM request (default = 4 data bus cycle)
-dram_data_command_freq_ratio                    2 # Frequency ratio between DRAM data bus and command bus (default = 2 times, i.e. DDR)
-gpgpu_dram_timing_opt nbk=16:CCD=1:RRD=3:RCD=12:RAS=28:RP=12:RC=40: CL=12:WL=2:CDLR=3:WR=10:nbkgrp=4:CCDL=2:RTPL=3 # DRAM timing parameters = {nbk:tCCD:tRRD:tRCD:tRAS:tRP:tRC:CL:WL:tCDLR:tWR:nbkgrp:tCCDL:tRTPL}
-gpgpu_l2_rop_latency                  160 # ROP queue latency (default 85)
-dram_latency                         200 # DRAM latency (default 30)
-dram_write_latency                   600 # DRAM write latency (default 100)
-dram_dual_bus_interface                    1 # dual_bus_interface (default = 0) 
-dram_bnk_indexing_policy                    0 # dram_bnk_indexing_policy (0 = normal indexing, 1 = Xoring with the higher bits) (Default = 0)
-dram_bnkgrp_indexing_policy                    1 # dram_bnkgrp_indexing_policy (0 = take higher bits, 1 = take lower bits) (Default = 0)
-dram_seperate_write_queue_enable                    0 # Seperate_Write_Queue_Enable
-dram_write_queue_size             32:28:16 # Write_Queue_Size
-dram_elimnate_rw_turnaround                    0 # elimnate_rw_turnaround i.e set tWTR and tRTW = 0
-icnt_flit_size                        40 # icnt_flit_size
-gpgpu_mem_addr_mapping dramid@8;00000000.00000000.00000000.00000000.0000RRRR.RRRRRRRR.RBBBCCCB.CCCSSSSS # mapping memory address to dram model {dramid@<start bit>;<memory address map>}
-gpgpu_mem_addr_test                    0 # run sweep test to check address mapping for aliased address
-gpgpu_mem_address_mask                    1 # 0 = old addressing mask, 1 = new addressing mask, 2 = new add. mask + flipped bank sel and chip sel bits
-gpgpu_memory_partition_indexing                    0 # 0 = no indexing, 1 = bitwise xoring, 2 = IPoly, 3 = custom indexing
-gpuwattch_xml_file         gpuwattch.xml # GPUWattch XML file
-power_simulation_enabled                    0 # Turn on power simulator (1=On, 0=Off)
-power_per_cycle_dump                    0 # Dump detailed power output each cycle
-power_trace_enabled                    0 # produce a file for the power trace (1=On, 0=Off)
-power_trace_zlevel                     6 # Compression level of the power trace output log (0=no comp, 9=highest)
-steady_power_levels_enabled                    0 # produce a file for the steady power levels (1=On, 0=Off)
-steady_state_definition                  8:4 # allowed deviation:number of samples
-gpgpu_max_cycle                        0 # terminates gpu simulation early (0 = no limit)
-gpgpu_max_insn                         0 # terminates gpu simulation early (0 = no limit)
-gpgpu_max_cta                          0 # terminates gpu simulation early (0 = no limit)
-gpgpu_max_completed_cta                    0 # terminates gpu simulation early (0 = no limit)
-gpgpu_runtime_stat                   500 # display runtime statistics such as dram utilization {<freq>:<flag>}
-liveness_message_freq                    1 # Minimum number of seconds between simulation liveness messages (0 = always print)
-gpgpu_compute_capability_major                    7 # Major compute capability version number
-gpgpu_compute_capability_minor                    0 # Minor compute capability version number
-gpgpu_flush_l1_cache                    1 # Flush L1 cache at the end of each kernel call
-gpgpu_flush_l2_cache                    0 # Flush L2 cache at the end of each kernel call
-gpgpu_deadlock_detect                    1 # Stop the simulation at deadlock (1=on (default), 0=off)
-gpgpu_ptx_instruction_classification                    0 # if enabled will classify ptx instruction types per kernel (Max 255 kernels now)
-gpgpu_ptx_sim_mode                     0 # Select between Performance (default) or Functional simulation (1)
-gpgpu_clock_domains 1132.0:1132.0:1132.0:850.0 # Clock Domain Frequencies in MhZ {<Core Clock>:<ICNT Clock>:<L2 Clock>:<DRAM Clock>}
-gpgpu_max_concurrent_kernel                    8 # maximum kernels that can run concurrently on GPU
-gpgpu_cflog_interval                    0 # Interval between each snapshot in control flow logger
-visualizer_enabled               3acf4816f28a61137a29f806736c3982  /home/pli11/Videos/parboil_benchmark/parboil/benchmarks/sad/build/nvm_default/sad
Extracting PTX file and ptxas options    1: sad.1.sm_70.ptx -arch=sm_70
Extracting PTX file and ptxas options    2: sad.2.sm_70.ptx -arch=sm_70
Extracting PTX file and ptxas options    3: sad.3.sm_70.ptx -arch=sm_70
      0 # Turn on visualizer output (1=On, 0=Off)
-visualizer_outputfile                 NULL # Specifies the output log file for visualizer
-visualizer_zlevel                      6 # Compression level of the visualizer output log (0=no comp, 9=highest)
-gpgpu_stack_size_limit                 1024 # GPU thread stack size
-gpgpu_heap_size_limit              8388608 # GPU malloc heap size 
-gpgpu_runtime_sync_depth_limit                    2 # GPU device runtime synchronize depth
-gpgpu_runtime_pending_launch_count_limit                 2048 # GPU device runtime pending launch count
-trace_enabled                          0 # Turn on traces
-trace_components                    none # comma seperated list of traces to enable. Complete list found in trace_streams.tup. Default none
-trace_sampling_core                    0 # The core which is printed using CORE_DPRINTF. Default 0
-trace_sampling_memory_partition                   -1 # The memory partition which is printed using MEMPART_DPRINTF. Default -1 (i.e. all)
-enable_ptx_file_line_stats                    1 # Turn on PTX source line statistic profiling. (1 = On)
-ptx_line_stats_filename gpgpu_inst_stats.txt # Output file for PTX source line statistics.
-gpgpu_kernel_launch_latency                 5000 # Kernel launch latency in cycles. Default: 0
-gpgpu_cdp_enabled                      0 # Turn on CDP
-gpgpu_TB_launch_latency                    0 # thread block launch latency in cycles. Default: 0
DRAM Timing Options:
nbk                                    16 # number of banks
CCD                                     1 # column to column delay
RRD                                     3 # minimal delay between activation of rows in different banks
RCD                                    12 # row to column delay
RAS                                    28 # time needed to activate row
RP                                     12 # time needed to precharge (deactivate) row
RC                                     40 # row cycle time
CDLR                                    3 # switching from write to read (changes tWTR)
WR                                     10 # last data-in to row precharge
CL                                     12 # CAS latency
WL                                      2 # Write latency
nbkgrp                                  4 # number of bank groups
CCDL                                    2 # column to column delay between accesses to different bank groups
RTPL                                    3 # read to precharge delay between accesses to different bank groups
Total number of memory sub partition = 64
addr_dec_mask[CHIP]  = 0000000000001f00 	high:13 low:8
addr_dec_mask[BK]    = 00000000000e2000 	high:20 low:13
addr_dec_mask[ROW]   = 00000001fff00000 	high:33 low:20
addr_dec_mask[COL]   = 000000000001c0ff 	high:17 low:0
addr_dec_mask[BURST] = 000000000000001f 	high:5 low:0
sub_partition_id_mask = 0000000000002000
GPGPU-Sim uArch: clock freqs: 1132000000.000000:1132000000.000000:1132000000.000000:850000000.000000
GPGPU-Sim uArch: clock periods: 0.00000000088339222615:0.00000000088339222615:0.00000000088339222615:0.00000000117647058824
*** Initializing Memory Statistics ***
GPGPU-Sim uArch: performance model initialization complete.
self exe links to: /home/pli11/Videos/parboil_benchmark/parboil/benchmarks/sad/build/nvm_default/sad
self exe links to: /home/pli11/Videos/parboil_benchmark/parboil/benchmarks/sad/build/nvm_default/sad
10.1
GPGPU-Sim PTX: __cudaRegisterFatBinary, fat_cubin_handle = 1, filename=default
self exe links to: /home/pli11/Videos/parboil_benchmark/parboil/benchmarks/sad/build/nvm_default/sad
Running md5sum using "md5sum /home/pli11/Videos/parboil_benchmark/parboil/benchmarks/sad/build/nvm_default/sad "
self exe links to: /home/pli11/Videos/parboil_benchmark/parboil/benchmarks/sad/build/nvm_default/sad
Extracting specific PTX file named sad.1.sm_70.ptx 
Extracting specific PTX file named sad.2.sm_70.ptx 
Extracting specific PTX file named sad.3.sm_70.ptx 
GPGPU-Sim PTX: __cudaRegisterFunction _Z16mb_sad_calc_nvmdPtS_ii : hostFun 0x0x403136, fat_cubin_handle = 1
GPGPU-Sim PTX: Parsing sad.1.sm_70.ptx
GPGPU-Sim PTX: allocating global region for "ref" from 0x100 to 0x104 (global memory space)
GPGPU-Sim PTX: allocating global region for "NVM_log" from 0x180 to 0x2000180 (global memory space)
GPGPU-Sim PTX: allocating global region for "NVM_flag" from 0x2000180 to 0x2400180 (global memory space)
GPGPU-Sim PTX: instruction assembly for function '_Z16mb_sad_calc_nvmoPtS_ii'...   done.
GPGPU-Sim PTX: instruction assembly for function '_Z16mb_sad_calc_nvmuPtS_ii'...   done.
GPGPU-Sim PTX: instruction assembly for function '_Z16mb_sad_calc_nvmqPtS_ii'...   done.
GPGPU-Sim PTX: instruction assembly for function '_Z16mb_sad_calc_nvmwPtS_ii'...   done.
GPGPU-Sim PTX: instruction assembly for function '_Z16mb_sad_calc_nvm1PtS_ii'...   done.
GPGPU-Sim PTX: instruction assembly for function '_Z16mb_sad_calc_nvm2PtS_ii'...   done.
GPGPU-Sim PTX: instruction assembly for function '_Z16mb_sad_calc_nvmjPtS_ii'...   done.
GPGPU-Sim PTX: instruction assembly for function '_Z16mb_sad_calc_nvmlPtS_ii'...   done.
GPGPU-Sim PTX: instruction assembly for function '_Z16mb_sad_calc_nvmgPtS_ii'...   done.
GPGPU-Sim PTX: instruction assembly for function '_Z16mb_sad_calc_nvm3PtS_ii'...   done.
GPGPU-Sim PTX: instruction assembly for function '_Z16mb_sad_calc_nvm4PtS_ii'...   done.
GPGPU-Sim PTX: instruction assembly for function '_Z16mb_sad_calc_nvmiPtS_ii'...   done.
GPGPU-Sim PTX: instruction assembly for function '_Z16mb_sad_calc_nvm6PtS_ii'...   done.
GPGPU-Sim PTX: instruction assembly for function '_Z16mb_sad_calc_nvm5PtS_ii'...   done.
GPGPU-Sim PTX: instruction assembly for function '_Z11mb_sad_calcPtS_ii'...   done.
GPGPU-Sim PTX: instruction assembly for function '_Z16mb_sad_calc_nvmbPtS_ii'...   done.
GPGPU-Sim PTX: instruction assembly for function '_Z16mb_sad_calc_nvmdPtS_ii'...   done.
GPGPU-Sim PTX: finished parsing EMBEDDED .ptx file sad.1.sm_70.ptx
GPGPU-Sim PTX: Parsing sad.2.sm_70.ptx
GPGPU-Sim PTX: instruction assembly for function '_Z17larger_sad_calc_8Ptii'...   done.
GPGPU-Sim PTX: instruction assembly for function '_Z22larger_sad_calc_8_nvmoPtii'...   done.
GPGPU-Sim PTX: instruction assembly for function '_Z22larger_sad_calc_8_nvmuPtii'...   done.
GPGPU-Sim PTX: instruction assembly for function '_Z22larger_sad_calc_8_nvmbPtii'...   done.
GPGPU-Sim PTX: instruction assembly for function '_Z18larger_sad_calc_16Ptii'...   done.
GPGPU-Sim PTX: finished parsing EMBEDDED .ptx file sad.2.sm_70.ptx
GPGPU-Sim PTX: Parsing sad.3.sm_70.ptx
GPGPU-Sim PTX: instruction assembly for function '_Z11kernel_l2wbv'...   done.
GPGPU-Sim PTX: instruction assembly for function '_Z15kernel_l2wb_pctv'...   done.
GPGPU-Sim PTX: finished parsing EMBEDDED .ptx file sad.3.sm_70.ptx
GPGPU-Sim PTX: loading globals with explicit initializers... 
GPGPU-Sim PTX: finished loading globals (0 bytes total).
GPGPU-Sim PTX: loading constants with explicit initializers...  done.
GPGPU-Sim PTX: Loading PTXInfo from sad.1.sm_70.ptx
GPGPU-Sim PTX: Kernel '_Z16mb_sad_calc_nvmdPtS_ii' : regs=48, lmem=0, smem=0, cmem=380
GPGPU-Sim PTX: Kernel '_Z16mb_sad_calc_nvmbPtS_ii' : regs=48, lmem=0, smem=0, cmem=380
GPGPU-Sim PTX: Kernel '_Z11mb_sad_calcPtS_ii' : regs=48, lmem=0, smem=0, cmem=380
GPGPU-Sim PTX: Kernel '_Z16mb_sad_calc_nvm5PtS_ii' : regs=64, lmem=0, smem=0, cmem=380
GPGPU-Sim PTX: Kernel '_Z16mb_sad_calc_nvm6PtS_ii' : regs=64, lmem=0, smem=0, cmem=380
GPGPU-Sim PTX: Kernel '_Z16mb_sad_calc_nvmiPtS_ii' : regs=56, lmem=0, smem=0, cmem=380
GPGPU-Sim PTX: Kernel '_Z16mb_sad_calc_nvm4PtS_ii' : regs=56, lmem=0, smem=0, cmem=380
GPGPU-Sim PTX: Kernel '_Z16mb_sad_calc_nvm3PtS_ii' : regs=56, lmem=0, smem=0, cmem=380
GPGPU-Sim PTX: Kernel '_Z16mb_sad_calc_nvmgPtS_ii' : regs=56, lmem=0, smem=0, cmem=380
GPGPU-Sim PTX: Kernel '_Z16mb_sad_calc_nvmlPtS_ii' : regs=48, lmem=0, smem=0, cmem=380
GPGPU-Sim PTX: Kernel '_Z16mb_sad_calc_nvmjPtS_ii' : regs=48, lmem=0, smem=0, cmem=380
GPGPU-Sim PTX: Kernel '_Z16mb_sad_calc_nvm2PtS_ii' : regs=48, lmem=0, smem=0, cmem=380
GPGPU-Sim PTX: Kernel '_Z16mb_sad_calc_nvm1PtS_ii' : regs=48, lmem=0, smem=0, cmem=380
GPGPU-Sim PTX: Kernel '_Z16mb_sad_calc_nvmwPtS_ii' : regs=56, lmem=0, smem=0, cmem=380
GPGPU-Sim PTX: Kernel '_Z16mb_sad_calc_nvmqPtS_ii' : regs=56, lmem=0, smem=0, cmem=380
GPGPU-Sim PTX: Kernel '_Z16mb_sad_calc_nvmuPtS_ii' : regs=56, lmem=0, smem=0, cmem=380
GPGPU-Sim PTX: Kernel '_Z16mb_sad_calc_nvmoPtS_ii' : regs=56, lmem=0, smem=0, cmem=380
GPGPU-Sim PTX: Loading PTXInfo from sad.2.sm_70.ptx
GPGPU-Sim PTX: Kernel '_Z18larger_sad_calc_16Ptii' : regs=32, lmem=0, smem=0, cmem=368
GPGPU-Sim PTX: Kernel '_Z22larger_sad_calc_8_nvmbPtii' : regs=32, lmem=0, smem=0, cmem=368
GPGPU-Sim PTX: Kernel '_Z22larger_sad_calc_8_nvmuPtii' : regs=32, lmem=0, smem=0, cmem=368
GPGPU-Sim PTX: Kernel '_Z22larger_sad_calc_8_nvmoPtii' : regs=32, lmem=0, smem=0, cmem=368
GPGPU-Sim PTX: Kernel '_Z17larger_sad_calc_8Ptii' : regs=32, lmem=0, smem=0, cmem=368
GPGPU-Sim PTX: Loading PTXInfo from sad.3.sm_70.ptx
GPGPU-Sim PTX: Kernel '_Z15kernel_l2wb_pctv' : regs=8, lmem=0, smem=0, cmem=352
GPGPU-Sim PTX: Kernel '_Z11kernel_l2wbv' : regs=8, lmem=0, smem=0, cmem=352
GPGPU-Sim PTX: __cudaRegisterFunction _Z16mb_sad_calc_nvmbPtS_ii : hostFun 0x0x402fc3, fat_cubin_handle = 1
GPGPU-Sim PTX: __cudaRegisterFunction _Z11mb_sad_calcPtS_ii : hostFun 0x0x402e50, fat_cubin_handle = 1
GPGPU-Sim PTX: __cudaRegisterFunction _Z16mb_sad_calc_nvm5PtS_ii : hostFun 0x0x402cdd, fat_cubin_handle = 1
GPGPU-Sim PTX: __cudaRegisterFunction _Z16mb_sad_calc_nvm6PtS_ii : hostFun 0x0x402b6a, fat_cubin_handle = 1
GPGPU-Sim PTX: __cudaRegisterFunction _Z16mb_sad_calc_nvmiPtS_ii : hostFun 0x0x4029f7, fat_cubin_handle = 1
GPGPU-Sim PTX: __cudaRegisterFunction _Z16mb_sad_calc_nvm4PtS_ii : hostFun 0x0x402884, fat_cubin_handle = 1
GPGPU-Sim PTX: __cudaRegisterFunction _Z16mb_sad_calc_nvm3PtS_ii : hostFun 0x0x402711, fat_cubin_handle = 1
GPGPU-Sim PTX: __cudaRegisterFunction _Z16mb_sad_calc_nvmgPtS_ii : hostFun 0x0x40259e, fat_cubin_handle = 1
GPGPU-Sim PTX: __cudaRegisterFunction _Z16mb_sad_calc_nvmlPtS_ii : hostFun 0x0x40242b, fat_cubin_handle = 1
GPGPU-Sim PTX: __cudaRegisterFunction _Z16mb_sad_calc_nvmjPtS_ii : hostFun 0x0x4022b8, fat_cubin_handle = 1
GPGPU-Sim PTX: __cudaRegisterFunction _Z16mb_sad_calc_nvm2PtS_ii : hostFun 0x0x402145, fat_cubin_handle = 1
GPGPU-Sim PTX: __cudaRegisterFunction _Z16mb_sad_calc_nvm1PtS_ii : hostFun 0x0x401fd2, fat_cubin_handle = 1
GPGPU-Sim PTX: __cudaRegisterFunction _Z16mb_sad_calc_nvmwPtS_ii : hostFun 0x0x401e5f, fat_cubin_handle = 1
GPGPU-Sim PTX: __cudaRegisterFunction _Z16mb_sad_calc_nvmqPtS_ii : hostFun 0x0x401cec, fat_cubin_handle = 1
GPGPU-Sim PTX: __cudaRegisterFunction _Z16mb_sad_calc_nvmuPtS_ii : hostFun 0x0x401b79, fat_cubin_handle = 1
GPGPU-Sim PTX: __cudaRegisterFunction _Z16mb_sad_calc_nvmoPtS_ii : hostFun 0x0x401a06, fat_cubin_handle = 1
GPGPU-Sim PTX: in __cudaRegisterTexture:
GPGPU-Sim PTX:   int dim = 2
GPGPU-Sim PTX:   int norm = 0
GPGPU-Sim PTX:   int ext = 0
GPGPU-Sim PTX:   Execution warning: Not finished implementing "void __cudaRegisterTextureInternal(void**, const textureReference*, const void**, const char*, int, int, int, gpgpu_context*)"
GPGPU-Sim PTX: __cudaRegisterVar: hostVar = 0x6132a0; deviceAddress = NVM_log; deviceName = NVM_log
GPGPU-Sim PTX: __cudaRegisterVar: Registering const memory space of 33554432 bytes
GPGPU-Sim PTX registering global NVM_log hostVar to name mapping
GPGPU-Sim PTX: __cudaRegisterVar: hostVar = 0x26132a0; deviceAddress = NVM_flag; deviceName = NVM_flag
GPGPU-Sim PTX: __cudaRegisterVar: Registering const memory space of 4194304 bytes
GPGPU-Sim PTX registering global NVM_flag hostVar to name mapping
self exe links to: /home/pli11/Videos/parboil_benchmark/parboil/benchmarks/sad/build/nvm_default/sad
self exe links to: /home/pli11/Videos/parboil_benchmark/parboil/benchmarks/sad/build/nvm_default/sad
10.1
GPGPU-Sim PTX: __cudaRegisterFatBinary, fat_cubin_handle = 2, filename=default
GPGPU-Sim PTX: __cudaRegisterFunction _Z18larger_sad_calc_16Ptii : hostFun 0x0x403ff1, fat_cubin_handle = 2
GPGPU-Sim PTX: __cudaRegisterFunction _Z22larger_sad_calc_8_nvmbPtii : hostFun 0x0x403e9a, fat_cubin_handle = 2
GPGPU-Sim PTX: __cudaRegisterFunction _Z22larger_sad_calc_8_nvmuPtii : hostFun 0x0x403d43, fat_cubin_handle = 2
GPGPU-Sim PTX: __cudaRegisterFunction _Z22larger_sad_calc_8_nvmoPtii : hostFun 0x0x403bec, fat_cubin_handle = 2
GPGPU-Sim PTX: __cudaRegisterFunction _Z17larger_sad_calc_8Ptii : hostFun 0x0x403a95, fat_cubin_handle = 2
self exe links to: /home/pli11/Videos/parboil_benchmark/parboil/benchmarks/sad/build/nvm_default/sad
self exe links to: /home/pli11/Videos/parboil_benchmark/parboil/benchmarks/sad/build/nvm_default/sad
10.1
GPGPU-Sim PTX: __cudaRegisterFatBinary, fat_cubin_handle = 3, filename=default
GPGPU-Sim PTX: __cudaRegisterFunction _Z15kernel_l2wb_pctv : hostFun 0x0x40676c, fat_cubin_handle = 3
GPGPU-Sim PTX: __cudaRegisterFunction _Z11kernel_l2wbv : hostFun 0x0x406672, fat_cubin_handle = 3
GPGPU-Sim PTX: cudaMallocArray: devPtr32 = -1073691136
GPGPU-Sim PTX: in cudaBindTextureToArray: 0x613220 0x11fa75c0
GPGPU-Sim PTX:   devPtr32 = c000c600
GPGPU-Sim PTX:   Name corresponding to textureReference: ref
GPGPU-Sim PTX:   Texture Normalized? = 0
GPGPU-Sim PTX:   texel size = 2
GPGPU-Sim PTX:   texture cache linesize = 128
GPGPU-Sim PTX:   Tx = 16; Ty = 4, Tx_numbits = 4, Ty_numbits = 2
GPGPU-Sim PTX:   Texel size = 2 bytes; texel_size_numbits = 1
GPGPU-Sim PTX:   Binding texture to array starting at devPtr32 = 0xc000c600
GPGPU-Sim PTX:   Texel size = 2 bytes
event update
width * height = 99
GPGPU-Sim: synchronize waiting for inactive GPU simulation
GPGPU-Sim API: Stream Manager State
GPGPU-Sim: detected inactive GPU simulation thread
GPGPU-Sim PTX: Setting up arguments for 8 bytes starting at 0x7ffd05405698..
GPGPU-Sim PTX: Setting up arguments for 8 bytes starting at 0x7ffd05405690..
GPGPU-Sim PTX: Setting up arguments for 4 bytes starting at 0x7ffd0540568c..
GPGPU-Sim PTX: Setting up arguments for 4 bytes starting at 0x7ffd05405688..

GPGPU-Sim PTX: cudaLaunch for 0x0x401b79 (mode=performance simulation) on stream 0
GPGPU-Sim PTX: finding reconvergence points for '_Z16mb_sad_calc_nvmuPtS_ii'...
GPGPU-Sim PTX: Finding dominators for '_Z16mb_sad_calc_nvmuPtS_ii'...
GPGPU-Sim PTX: Finding immediate dominators for '_Z16mb_sad_calc_nvmuPtS_ii'...
GPGPU-Sim PTX: Finding postdominators for '_Z16mb_sad_calc_nvmuPtS_ii'...
GPGPU-Sim PTX: Finding immediate postdominators for '_Z16mb_sad_calc_nvmuPtS_ii'...
GPGPU-Sim PTX: pre-decoding instructions for '_Z16mb_sad_calc_nvmuPtS_ii'...
GPGPU-Sim PTX: reconvergence points for _Z16mb_sad_calc_nvmuPtS_ii...
GPGPU-Sim PTX:  1 (potential) branch divergence @  PC=0x668 (sad.1.sm_70.ptx:264) @%p3 bra BB1_4;
GPGPU-Sim PTX:    immediate post dominator      @  PC=0xbe8 (sad.1.sm_70.ptx:454) ret;
GPGPU-Sim PTX:  2 (potential) branch divergence @  PC=0x6a8 (sad.1.sm_70.ptx:273) @%p4 bra BB1_4;
GPGPU-Sim PTX:    immediate post dominator      @  PC=0xbe8 (sad.1.sm_70.ptx:454) ret;
GPGPU-Sim PTX:  3 (potential) branch divergence @  PC=0xbe0 (sad.1.sm_70.ptx:451) @%p5 bra BB1_3;
GPGPU-Sim PTX:    immediate post dominator      @  PC=0xbe8 (sad.1.sm_70.ptx:454) ret;
GPGPU-Sim PTX: ... end of reconvergence points for _Z16mb_sad_calc_nvmuPtS_ii
GPGPU-Sim PTX: ... done pre-decoding instructions for '_Z16mb_sad_calc_nvmuPtS_ii'.
GPGPU-Sim PTX: pushing kernel '_Z16mb_sad_calc_nvmuPtS_ii' to stream 0, gridDim= (44,36,1) blockDim = (61,1,1) 
GPGPU-Sim uArch: Shader 0 bind to kernel 1 '_Z16mb_sad_calc_nvmuPtS_ii'
GPGPU-Sim uArch: CTA/core = 18, limited by: regs
GPGPU-Sim: Reconfigure L1 cache to 128KB
GPGPU-Sim uArch: Shader 1 bind to kernel 1 '_Z16mb_sad_calc_nvmuPtS_ii'
GPGPU-Sim uArch: Shader 2 bind to kernel 1 '_Z16mb_sad_calc_nvmuPtS_ii'
GPGPU-Sim uArch: Shader 3 bind to kernel 1 '_Z16mb_sad_calc_nvmuPtS_ii'
GPGPU-Sim uArch: Shader 4 bind to kernel 1 '_Z16mb_sad_calc_nvmuPtS_ii'
GPGPU-Sim uArch: Shader 5 bind to kernel 1 '_Z16mb_sad_calc_nvmuPtS_ii'
GPGPU-Sim uArch: Shader 6 bind to kernel 1 '_Z16mb_sad_calc_nvmuPtS_ii'
GPGPU-Sim uArch: Shader 7 bind to kernel 1 '_Z16mb_sad_calc_nvmuPtS_ii'
GPGPU-Sim uArch: Shader 8 bind to kernel 1 '_Z16mb_sad_calc_nvmuPtS_ii'
GPGPU-Sim uArch: Shader 9 bind to kernel 1 '_Z16mb_sad_calc_nvmuPtS_ii'
GPGPU-Sim uArch: Shader 10 bind to kernel 1 '_Z16mb_sad_calc_nvmuPtS_ii'
GPGPU-Sim uArch: Shader 11 bind to kernel 1 '_Z16mb_sad_calc_nvmuPtS_ii'
GPGPU-Sim uArch: Shader 12 bind to kernel 1 '_Z16mb_sad_calc_nvmuPtS_ii'
GPGPU-Sim uArch: Shader 13 bind to kernel 1 '_Z16mb_sad_calc_nvmuPtS_ii'
GPGPU-Sim uArch: Shader 14 bind to kernel 1 '_Z16mb_sad_calc_nvmuPtS_ii'
GPGPU-Sim uArch: Shader 15 bind to kernel 1 '_Z16mb_sad_calc_nvmuPtS_ii'
GPGPU-Sim uArch: Shader 16 bind to kernel 1 '_Z16mb_sad_calc_nvmuPtS_ii'
GPGPU-Sim uArch: Shader 17 bind to kernel 1 '_Z16mb_sad_calc_nvmuPtS_ii'
GPGPU-Sim uArch: Shader 18 bind to kernel 1 '_Z16mb_sad_calc_nvmuPtS_ii'
GPGPU-Sim uArch: Shader 19 bind to kernel 1 '_Z16mb_sad_calc_nvmuPtS_ii'
GPGPU-Sim uArch: Shader 20 bind to kernel 1 '_Z16mb_sad_calc_nvmuPtS_ii'
GPGPU-Sim uArch: Shader 21 bind to kernel 1 '_Z16mb_sad_calc_nvmuPtS_ii'
GPGPU-Sim uArch: Shader 22 bind to kernel 1 '_Z16mb_sad_calc_nvmuPtS_ii'
GPGPU-Sim uArch: Shader 23 bind to kernel 1 '_Z16mb_sad_calc_nvmuPtS_ii'
GPGPU-Sim uArch: Shader 24 bind to kernel 1 '_Z16mb_sad_calc_nvmuPtS_ii'
GPGPU-Sim uArch: Shader 25 bind to kernel 1 '_Z16mb_sad_calc_nvmuPtS_ii'
GPGPU-Sim uArch: Shader 26 bind to kernel 1 '_Z16mb_sad_calc_nvmuPtS_ii'
GPGPU-Sim uArch: Shader 27 bind to kernel 1 '_Z16mb_sad_calc_nvmuPtS_ii'
GPGPU-Sim uArch: Shader 28 bind to kernel 1 '_Z16mb_sad_calc_nvmuPtS_ii'
GPGPU-Sim uArch: Shader 29 bind to kernel 1 '_Z16mb_sad_calc_nvmuPtS_ii'
GPGPU-Sim uArch: Shader 30 bind to kernel 1 '_Z16mb_sad_calc_nvmuPtS_ii'
GPGPU-Sim uArch: Shader 31 bind to kernel 1 '_Z16mb_sad_calc_nvmuPtS_ii'
GPGPU-Sim uArch: Shader 32 bind to kernel 1 '_Z16mb_sad_calc_nvmuPtS_ii'
GPGPU-Sim uArch: Shader 33 bind to kernel 1 '_Z16mb_sad_calc_nvmuPtS_ii'
GPGPU-Sim uArch: Shader 34 bind to kernel 1 '_Z16mb_sad_calc_nvmuPtS_ii'
GPGPU-Sim uArch: Shader 35 bind to kernel 1 '_Z16mb_sad_calc_nvmuPtS_ii'
GPGPU-Sim uArch: Shader 36 bind to kernel 1 '_Z16mb_sad_calc_nvmuPtS_ii'
GPGPU-Sim uArch: Shader 37 bind to kernel 1 '_Z16mb_sad_calc_nvmuPtS_ii'
GPGPU-Sim uArch: Shader 38 bind to kernel 1 '_Z16mb_sad_calc_nvmuPtS_ii'
GPGPU-Sim uArch: Shader 39 bind to kernel 1 '_Z16mb_sad_calc_nvmuPtS_ii'
GPGPU-Sim uArch: Shader 40 bind to kernel 1 '_Z16mb_sad_calc_nvmuPtS_ii'
GPGPU-Sim uArch: Shader 41 bind to kernel 1 '_Z16mb_sad_calc_nvmuPtS_ii'
GPGPU-Sim uArch: Shader 42 bind to kernel 1 '_Z16mb_sad_calc_nvmuPtS_ii'
GPGPU-Sim uArch: Shader 43 bind to kernel 1 '_Z16mb_sad_calc_nvmuPtS_ii'
GPGPU-Sim uArch: Shader 44 bind to kernel 1 '_Z16mb_sad_calc_nvmuPtS_ii'
GPGPU-Sim uArch: Shader 45 bind to kernel 1 '_Z16mb_sad_calc_nvmuPtS_ii'
GPGPU-Sim uArch: Shader 46 bind to kernel 1 '_Z16mb_sad_calc_nvmuPtS_ii'
GPGPU-Sim uArch: Shader 47 bind to kernel 1 '_Z16mb_sad_calc_nvmuPtS_ii'
GPGPU-Sim uArch: Shader 48 bind to kernel 1 '_Z16mb_sad_calc_nvmuPtS_ii'
GPGPU-Sim uArch: Shader 49 bind to kernel 1 '_Z16mb_sad_calc_nvmuPtS_ii'
GPGPU-Sim uArch: Shader 50 bind to kernel 1 '_Z16mb_sad_calc_nvmuPtS_ii'
GPGPU-Sim uArch: Shader 51 bind to kernel 1 '_Z16mb_sad_calc_nvmuPtS_ii'
GPGPU-Sim uArch: Shader 52 bind to kernel 1 '_Z16mb_sad_calc_nvmuPtS_ii'
GPGPU-Sim uArch: Shader 53 bind to kernel 1 '_Z16mb_sad_calc_nvmuPtS_ii'
GPGPU-Sim uArch: Shader 54 bind to kernel 1 '_Z16mb_sad_calc_nvmuPtS_ii'
GPGPU-Sim uArch: Shader 55 bind to kernel 1 '_Z16mb_sad_calc_nvmuPtS_ii'
GPGPU-Sim uArch: Shader 56 bind to kernel 1 '_Z16mb_sad_calc_nvmuPtS_ii'
GPGPU-Sim uArch: Shader 57 bind to kernel 1 '_Z16mb_sad_calc_nvmuPtS_ii'
GPGPU-Sim uArch: Shader 58 bind to kernel 1 '_Z16mb_sad_calc_nvmuPtS_ii'
GPGPU-Sim uArch: Shader 59 bind to kernel 1 '_Z16mb_sad_calc_nvmuPtS_ii'
GPGPU-Sim uArch: Shader 60 bind to kernel 1 '_Z16mb_sad_calc_nvmuPtS_ii'
GPGPU-Sim uArch: Shader 61 bind to kernel 1 '_Z16mb_sad_calc_nvmuPtS_ii'
GPGPU-Sim uArch: Shader 62 bind to kernel 1 '_Z16mb_sad_calc_nvmuPtS_ii'
GPGPU-Sim uArch: Shader 63 bind to kernel 1 '_Z16mb_sad_calc_nvmuPtS_ii'
GPGPU-Sim uArch: Shader 64 bind to kernel 1 '_Z16mb_sad_calc_nvmuPtS_ii'
GPGPU-Sim uArch: Shader 65 bind to kernel 1 '_Z16mb_sad_calc_nvmuPtS_ii'
GPGPU-Sim uArch: Shader 66 bind to kernel 1 '_Z16mb_sad_calc_nvmuPtS_ii'
GPGPU-Sim uArch: Shader 67 bind to kernel 1 '_Z16mb_sad_calc_nvmuPtS_ii'
GPGPU-Sim uArch: Shader 68 bind to kernel 1 '_Z16mb_sad_calc_nvmuPtS_ii'
GPGPU-Sim uArch: Shader 69 bind to kernel 1 '_Z16mb_sad_calc_nvmuPtS_ii'
GPGPU-Sim uArch: Shader 70 bind to kernel 1 '_Z16mb_sad_calc_nvmuPtS_ii'
GPGPU-Sim uArch: Shader 71 bind to kernel 1 '_Z16mb_sad_calc_nvmuPtS_ii'
GPGPU-Sim uArch: Shader 72 bind to kernel 1 '_Z16mb_sad_calc_nvmuPtS_ii'
GPGPU-Sim uArch: Shader 73 bind to kernel 1 '_Z16mb_sad_calc_nvmuPtS_ii'
GPGPU-Sim uArch: Shader 74 bind to kernel 1 '_Z16mb_sad_calc_nvmuPtS_ii'
GPGPU-Sim uArch: Shader 75 bind to kernel 1 '_Z16mb_sad_calc_nvmuPtS_ii'
GPGPU-Sim uArch: Shader 76 bind to kernel 1 '_Z16mb_sad_calc_nvmuPtS_ii'
GPGPU-Sim uArch: Shader 77 bind to kernel 1 '_Z16mb_sad_calc_nvmuPtS_ii'
GPGPU-Sim uArch: Shader 78 bind to kernel 1 '_Z16mb_sad_calc_nvmuPtS_ii'
GPGPU-Sim uArch: Shader 79 bind to kernel 1 '_Z16mb_sad_calc_nvmuPtS_ii'
Destroy streams for kernel 1: size 0
kernel_name = _Z16mb_sad_calc_nvmuPtS_ii 
kernel_launch_uid = 1 
gpu_sim_cycle = 441361
gpu_sim_insn = 246327840
gpu_ipc =     558.1097
gpu_tot_sim_cycle = 441361
gpu_tot_sim_insn = 246327840
gpu_tot_ipc =     558.1097
gpu_tot_issued_cta = 1584
gpu_occupancy = 49.2151% 
gpu_tot_occupancy = 49.2151% 
max_total_param_size = 0
gpu_stall_dramfull = 15412816
gpu_stall_icnt2sh    = 511
partiton_level_parallism =      16.6108
partiton_level_parallism_total  =      16.6108
partiton_level_parallism_util =      17.0174
partiton_level_parallism_util_total  =      17.0174
L2_BW  =     605.5005 GB/Sec
L2_BW_total  =     605.5005 GB/Sec
gpu_total_sim_rate=79434
############## bottleneck_stats #############
cycles: core 441361, icnt 441361, l2 441361, dram 331410
gpu_ipc	558.110
gpu_tot_issued_cta = 1584, average cycles = 279
n_dram_writes	 0, n_dram_reads	 0
n_GLOBAL_ACC_R	 0 
n_LOCAL_ACC_R	 0 
n_CONST_ACC_R	 0 
n_TEXTURE_ACC_R	 0 
n_GLOBAL_ACC_W	 0 
n_LOCAL_ACC_W	 0 
n_L1_WRBK_ACC	 0 
n_L2_WRBK_ACC	 1717010 
n_L1_WR_ALLOC_R	 0 
n_L2_WR_ALLOC_R	 0 

n_sm	 80, n_schedulers	 4
scheduler util	0.058	80
L1D data util	0.234	80	0.261	61
L1D tag util	0.078	80	0.086	53
L2 data util	0.310	64	0.312	58
L2 tag util	0.132	64	0.133	42
n_l2_access	 3728012
icnt s2m util	0.000	0	0.000	42	flits per packet: -nan
icnt m2s util	0.000	0	0.000	42	flits per packet: -nan
sum=0
n_mem	 32
dram util	0.365	32	0.366	0

latency_l1_hit:	10196158, num_l1_reqs:	509702
L1 hit latency:	20
latency_l2_hit:	-1387384294, num_l2_reqs:	1894192
L2 hit latency:	1534
latency_dram:	-1143082561, num_dram_reqs:	1833820
DRAM latency:	1718

n_reg	65536, n_smem	98304, n_thread	2048, n_tb	32
reg file	0.984
smem size	0.000
thread slot	0.562
TB slot    	0.562
L1I tag util	0.117	80	0.130	37

n_mem_pipe	1, n_sp_pipe	4, n_sfu_pipe	4
mem pipe util	0.060	80	0.067	37
sp pipe util	0.000	0	0.000	37
sfu pipe util	0.000	0	0.000	37
ldst mem cycle	0.152	80	0.169	37

smem port	0.000	0

n_reg_bank	16
reg port	0.089	16	0.095	8
L1D tag util	0.078	80	0.086	53
L1D fill util	0.006	80	0.007	61
n_l1d_mshr	4096
L1D mshr util	0.002	80
n_l1d_missq	16
L1D missq util	0.008	80
L1D hit rate	0.186
L1D miss rate	0.777
L1D rsfail rate	0.037
L2 tag util	0.132	64	0.133	42
L2 fill util	0.000	0	0.000	42
n_l2_mshr	192
n_l2_missq	32
L2 mshr util	0.000	0	0.000	42
L2 missq util	0.002	64	0.002	58
L2 hit rate	0.508
L2 miss rate	0.492
L2 rsfail rate	0.000

dram activity	0.643	32	0.654	26

load trans eff	0.062
load trans sz	32.000
load_useful_bytes 1824768, load_transaction_bytes 29196288, icnt_m2s_bytes 0
n_gmem_load_insns 912384, n_gmem_load_accesses 912384
n_smem_access_insn 0, n_smem_accesses 0

tmp_counter/12	0.304

run 0.008, fetch 0.000, sync 0.325, control 0.000, data 0.666, struct 0.001
############ end_bottleneck_stats #############

========= Core cache stats =========
L1I_cache:
	L1I_total_cache_accesses = 0
	L1I_total_cache_misses = 0
	L1I_total_cache_pending_hits = 0
	L1I_total_cache_reservation_fails = 0
L1D_cache:
	L1D_cache_core[0]: Access = 33300, Miss = 26882, Miss_rate = 0.807, Pending_hits = 0, Reservation_fails = 1430
	L1D_cache_core[1]: Access = 33300, Miss = 26843, Miss_rate = 0.806, Pending_hits = 0, Reservation_fails = 1609
	L1D_cache_core[2]: Access = 34965, Miss = 28167, Miss_rate = 0.806, Pending_hits = 0, Reservation_fails = 2087
	L1D_cache_core[3]: Access = 31635, Miss = 25528, Miss_rate = 0.807, Pending_hits = 0, Reservation_fails = 1620
	L1D_cache_core[4]: Access = 34965, Miss = 28064, Miss_rate = 0.803, Pending_hits = 0, Reservation_fails = 1236
	L1D_cache_core[5]: Access = 34965, Miss = 28064, Miss_rate = 0.803, Pending_hits = 0, Reservation_fails = 2062
	L1D_cache_core[6]: Access = 33300, Miss = 26910, Miss_rate = 0.808, Pending_hits = 0, Reservation_fails = 2345
	L1D_cache_core[7]: Access = 34965, Miss = 28126, Miss_rate = 0.804, Pending_hits = 0, Reservation_fails = 1542
	L1D_cache_core[8]: Access = 33300, Miss = 26936, Miss_rate = 0.809, Pending_hits = 0, Reservation_fails = 1368
	L1D_cache_core[9]: Access = 31635, Miss = 25606, Miss_rate = 0.809, Pending_hits = 0, Reservation_fails = 649
	L1D_cache_core[10]: Access = 31635, Miss = 25505, Miss_rate = 0.806, Pending_hits = 0, Reservation_fails = 1564
	L1D_cache_core[11]: Access = 33300, Miss = 26869, Miss_rate = 0.807, Pending_hits = 0, Reservation_fails = 1049
	L1D_cache_core[12]: Access = 33300, Miss = 26846, Miss_rate = 0.806, Pending_hits = 0, Reservation_fails = 358
	L1D_cache_core[13]: Access = 33300, Miss = 26873, Miss_rate = 0.807, Pending_hits = 0, Reservation_fails = 848
	L1D_cache_core[14]: Access = 31635, Miss = 25588, Miss_rate = 0.809, Pending_hits = 0, Reservation_fails = 1752
	L1D_cache_core[15]: Access = 33300, Miss = 26851, Miss_rate = 0.806, Pending_hits = 0, Reservation_fails = 604
	L1D_cache_core[16]: Access = 31635, Miss = 25616, Miss_rate = 0.810, Pending_hits = 0, Reservation_fails = 890
	L1D_cache_core[17]: Access = 31635, Miss = 25550, Miss_rate = 0.808, Pending_hits = 0, Reservation_fails = 1631
	L1D_cache_core[18]: Access = 33300, Miss = 26771, Miss_rate = 0.804, Pending_hits = 0, Reservation_fails = 1000
	L1D_cache_core[19]: Access = 31635, Miss = 25416, Miss_rate = 0.803, Pending_hits = 0, Reservation_fails = 1420
	L1D_cache_core[20]: Access = 33300, Miss = 26830, Miss_rate = 0.806, Pending_hits = 0, Reservation_fails = 390
	L1D_cache_core[21]: Access = 33300, Miss = 26811, Miss_rate = 0.805, Pending_hits = 0, Reservation_fails = 558
	L1D_cache_core[22]: Access = 31635, Miss = 25508, Miss_rate = 0.806, Pending_hits = 0, Reservation_fails = 2417
	L1D_cache_core[23]: Access = 33300, Miss = 26864, Miss_rate = 0.807, Pending_hits = 0, Reservation_fails = 1679
	L1D_cache_core[24]: Access = 31635, Miss = 25445, Miss_rate = 0.804, Pending_hits = 0, Reservation_fails = 959
	L1D_cache_core[25]: Access = 34965, Miss = 28120, Miss_rate = 0.804, Pending_hits = 0, Reservation_fails = 929
	L1D_cache_core[26]: Access = 34965, Miss = 28205, Miss_rate = 0.807, Pending_hits = 0, Reservation_fails = 741
	L1D_cache_core[27]: Access = 29970, Miss = 24229, Miss_rate = 0.808, Pending_hits = 0, Reservation_fails = 1944
	L1D_cache_core[28]: Access = 33300, Miss = 26871, Miss_rate = 0.807, Pending_hits = 0, Reservation_fails = 1208
	L1D_cache_core[29]: Access = 33300, Miss = 26933, Miss_rate = 0.809, Pending_hits = 0, Reservation_fails = 963
	L1D_cache_core[30]: Access = 31635, Miss = 25582, Miss_rate = 0.809, Pending_hits = 0, Reservation_fails = 926
	L1D_cache_core[31]: Access = 31635, Miss = 25495, Miss_rate = 0.806, Pending_hits = 0, Reservation_fails = 1764
	L1D_cache_core[32]: Access = 33300, Miss = 27002, Miss_rate = 0.811, Pending_hits = 0, Reservation_fails = 318
	L1D_cache_core[33]: Access = 31635, Miss = 25512, Miss_rate = 0.806, Pending_hits = 0, Reservation_fails = 961
	L1D_cache_core[34]: Access = 33300, Miss = 27052, Miss_rate = 0.812, Pending_hits = 0, Reservation_fails = 893
	L1D_cache_core[35]: Access = 34965, Miss = 28196, Miss_rate = 0.806, Pending_hits = 0, Reservation_fails = 892
	L1D_cache_core[36]: Access = 33300, Miss = 26822, Miss_rate = 0.805, Pending_hits = 0, Reservation_fails = 1127
	L1D_cache_core[37]: Access = 36630, Miss = 29558, Miss_rate = 0.807, Pending_hits = 0, Reservation_fails = 817
	L1D_cache_core[38]: Access = 33300, Miss = 26908, Miss_rate = 0.808, Pending_hits = 0, Reservation_fails = 721
	L1D_cache_core[39]: Access = 29970, Miss = 24241, Miss_rate = 0.809, Pending_hits = 0, Reservation_fails = 919
	L1D_cache_core[40]: Access = 31635, Miss = 25575, Miss_rate = 0.808, Pending_hits = 0, Reservation_fails = 2133
	L1D_cache_core[41]: Access = 29970, Miss = 24337, Miss_rate = 0.812, Pending_hits = 0, Reservation_fails = 1303
	L1D_cache_core[42]: Access = 29970, Miss = 24307, Miss_rate = 0.811, Pending_hits = 0, Reservation_fails = 710
	L1D_cache_core[43]: Access = 34965, Miss = 27986, Miss_rate = 0.800, Pending_hits = 0, Reservation_fails = 1532
	L1D_cache_core[44]: Access = 31635, Miss = 25484, Miss_rate = 0.806, Pending_hits = 0, Reservation_fails = 1773
	L1D_cache_core[45]: Access = 29970, Miss = 24268, Miss_rate = 0.810, Pending_hits = 0, Reservation_fails = 2252
	L1D_cache_core[46]: Access = 31635, Miss = 25580, Miss_rate = 0.809, Pending_hits = 0, Reservation_fails = 1659
	L1D_cache_core[47]: Access = 33300, Miss = 26781, Miss_rate = 0.804, Pending_hits = 0, Reservation_fails = 1740
	L1D_cache_core[48]: Access = 31635, Miss = 25504, Miss_rate = 0.806, Pending_hits = 0, Reservation_fails = 899
	L1D_cache_core[49]: Access = 33300, Miss = 26784, Miss_rate = 0.804, Pending_hits = 0, Reservation_fails = 303
	L1D_cache_core[50]: Access = 34965, Miss = 28154, Miss_rate = 0.805, Pending_hits = 0, Reservation_fails = 387
	L1D_cache_core[51]: Access = 33300, Miss = 26750, Miss_rate = 0.803, Pending_hits = 0, Reservation_fails = 1541
	L1D_cache_core[52]: Access = 29970, Miss = 24117, Miss_rate = 0.805, Pending_hits = 0, Reservation_fails = 847
	L1D_cache_core[53]: Access = 34965, Miss = 28226, Miss_rate = 0.807, Pending_hits = 0, Reservation_fails = 3054
	L1D_cache_core[54]: Access = 33300, Miss = 26753, Miss_rate = 0.803, Pending_hits = 0, Reservation_fails = 2097
	L1D_cache_core[55]: Access = 34965, Miss = 28109, Miss_rate = 0.804, Pending_hits = 0, Reservation_fails = 1332
	L1D_cache_core[56]: Access = 31635, Miss = 25549, Miss_rate = 0.808, Pending_hits = 0, Reservation_fails = 1019
	L1D_cache_core[57]: Access = 33300, Miss = 26844, Miss_rate = 0.806, Pending_hits = 0, Reservation_fails = 738
	L1D_cache_core[58]: Access = 31635, Miss = 25611, Miss_rate = 0.810, Pending_hits = 0, Reservation_fails = 209
	L1D_cache_core[59]: Access = 34965, Miss = 28124, Miss_rate = 0.804, Pending_hits = 0, Reservation_fails = 1708
	L1D_cache_core[60]: Access = 33300, Miss = 26898, Miss_rate = 0.808, Pending_hits = 0, Reservation_fails = 1358
	L1D_cache_core[61]: Access = 36630, Miss = 29642, Miss_rate = 0.809, Pending_hits = 0, Reservation_fails = 1101
	L1D_cache_core[62]: Access = 34965, Miss = 28254, Miss_rate = 0.808, Pending_hits = 0, Reservation_fails = 1473
	L1D_cache_core[63]: Access = 31635, Miss = 25491, Miss_rate = 0.806, Pending_hits = 0, Reservation_fails = 1638
	L1D_cache_core[64]: Access = 34965, Miss = 28211, Miss_rate = 0.807, Pending_hits = 0, Reservation_fails = 608
	L1D_cache_core[65]: Access = 31635, Miss = 25488, Miss_rate = 0.806, Pending_hits = 0, Reservation_fails = 601
	L1D_cache_core[66]: Access = 33300, Miss = 26807, Miss_rate = 0.805, Pending_hits = 0, Reservation_fails = 1808
	L1D_cache_core[67]: Access = 33300, Miss = 26860, Miss_rate = 0.807, Pending_hits = 0, Reservation_fails = 1512
	L1D_cache_core[68]: Access = 34965, Miss = 28072, Miss_rate = 0.803, Pending_hits = 0, Reservation_fails = 1531
	L1D_cache_core[69]: Access = 31635, Miss = 25558, Miss_rate = 0.808, Pending_hits = 0, Reservation_fails = 804
	L1D_cache_core[70]: Access = 33300, Miss = 26928, Miss_rate = 0.809, Pending_hits = 0, Reservation_fails = 1142
	L1D_cache_core[71]: Access = 33300, Miss = 26842, Miss_rate = 0.806, Pending_hits = 0, Reservation_fails = 1573
	L1D_cache_core[72]: Access = 31635, Miss = 25611, Miss_rate = 0.810, Pending_hits = 0, Reservation_fails = 145
	L1D_cache_core[73]: Access = 31635, Miss = 25615, Miss_rate = 0.810, Pending_hits = 0, Reservation_fails = 1472
	L1D_cache_core[74]: Access = 29970, Miss = 24327, Miss_rate = 0.812, Pending_hits = 0, Reservation_fails = 2133
	L1D_cache_core[75]: Access = 33300, Miss = 26733, Miss_rate = 0.803, Pending_hits = 0, Reservation_fails = 1750
	L1D_cache_core[76]: Access = 34965, Miss = 28226, Miss_rate = 0.807, Pending_hits = 0, Reservation_fails = 1735
	L1D_cache_core[77]: Access = 34965, Miss = 28265, Miss_rate = 0.808, Pending_hits = 0, Reservation_fails = 711
	L1D_cache_core[78]: Access = 34965, Miss = 28264, Miss_rate = 0.808, Pending_hits = 0, Reservation_fails = 1911
	L1D_cache_core[79]: Access = 31635, Miss = 25528, Miss_rate = 0.807, Pending_hits = 0, Reservation_fails = 2256
	L1D_total_cache_accesses = 2637360
	L1D_total_cache_misses = 2127658
	L1D_total_cache_miss_rate = 0.8067
	L1D_total_cache_pending_hits = 0
	L1D_total_cache_reservation_fails = 102688
	L1D_cache_data_port_util = 0.015
	L1D_cache_fill_port_util = 0.006
L1C_cache:
	L1C_total_cache_accesses = 0
	L1C_total_cache_misses = 0
	L1C_total_cache_pending_hits = 0
	L1C_total_cache_reservation_fails = 0
L1T_cache:
	L1T_total_cache_accesses = 8175273
	L1T_total_cache_misses = 15393
	L1T_total_cache_miss_rate = 0.0019
	L1T_total_cache_pending_hits = 8159880
	L1T_total_cache_reservation_fails = 0

Total_core_cache_stats:
	Total_core_cache_stats_breakdown[GLOBAL_ACC_R][HIT] = 509702
	Total_core_cache_stats_breakdown[GLOBAL_ACC_R][HIT_RESERVED] = 0
	Total_core_cache_stats_breakdown[GLOBAL_ACC_R][MISS] = 216210
	Total_core_cache_stats_breakdown[GLOBAL_ACC_R][RESERVATION_FAIL] = 2014
	Total_core_cache_stats_breakdown[GLOBAL_ACC_R][SECTOR_MISS] = 186472
	Total_core_cache_stats_breakdown[LOCAL_ACC_R][HIT] = 0
	Total_core_cache_stats_breakdown[LOCAL_ACC_R][HIT_RESERVED] = 0
	Total_core_cache_stats_breakdown[LOCAL_ACC_R][MISS] = 0
	Total_core_cache_stats_breakdown[LOCAL_ACC_R][RESERVATION_FAIL] = 0
	Total_core_cache_stats_breakdown[LOCAL_ACC_R][SECTOR_MISS] = 0
	Total_core_cache_stats_breakdown[CONST_ACC_R][HIT] = 0
	Total_core_cache_stats_breakdown[CONST_ACC_R][HIT_RESERVED] = 0
	Total_core_cache_stats_breakdown[CONST_ACC_R][MISS] = 0
	Total_core_cache_stats_breakdown[CONST_ACC_R][RESERVATION_FAIL] = 0
	Total_core_cache_stats_breakdown[CONST_ACC_R][SECTOR_MISS] = 0
	Total_core_cache_stats_breakdown[TEXTURE_ACC_R][HIT] = 0
	Total_core_cache_stats_breakdown[TEXTURE_ACC_R][HIT_RESERVED] = 8159880
	Total_core_cache_stats_breakdown[TEXTURE_ACC_R][MISS] = 15393
	Total_core_cache_stats_breakdown[TEXTURE_ACC_R][RESERVATION_FAIL] = 0
	Total_core_cache_stats_breakdown[TEXTURE_ACC_R][SECTOR_MISS] = 0
	Total_core_cache_stats_breakdown[GLOBAL_ACC_W][HIT] = 0
	Total_core_cache_stats_breakdown[GLOBAL_ACC_W][HIT_RESERVED] = 0
	Total_core_cache_stats_breakdown[GLOBAL_ACC_W][MISS] = 1724976
	Total_core_cache_stats_breakdown[GLOBAL_ACC_W][RESERVATION_FAIL] = 100674
	Total_core_cache_stats_breakdown[GLOBAL_ACC_W][SECTOR_MISS] = 0
	Total_core_cache_stats_breakdown[LOCAL_ACC_W][HIT] = 0
	Total_core_cache_stats_breakdown[LOCAL_ACC_W][HIT_RESERVED] = 0
	Total_core_cache_stats_breakdown[LOCAL_ACC_W][MISS] = 0
	Total_core_cache_stats_breakdown[LOCAL_ACC_W][RESERVATION_FAIL] = 0
	Total_core_cache_stats_breakdown[LOCAL_ACC_W][SECTOR_MISS] = 0
	Total_core_cache_stats_breakdown[L1_WRBK_ACC][HIT] = 0
	Total_core_cache_stats_breakdown[L1_WRBK_ACC][HIT_RESERVED] = 0
	Total_core_cache_stats_breakdown[L1_WRBK_ACC][MISS] = 0
	Total_core_cache_stats_breakdown[L1_WRBK_ACC][RESERVATION_FAIL] = 0
	Total_core_cache_stats_breakdown[L1_WRBK_ACC][SECTOR_MISS] = 0
	Total_core_cache_stats_breakdown[L2_WRBK_ACC][HIT] = 0
	Total_core_cache_stats_breakdown[L2_WRBK_ACC][HIT_RESERVED] = 0
	Total_core_cache_stats_breakdown[L2_WRBK_ACC][MISS] = 0
	Total_core_cache_stats_breakdown[L2_WRBK_ACC][RESERVATION_FAIL] = 0
	Total_core_cache_stats_breakdown[L2_WRBK_ACC][SECTOR_MISS] = 0
	Total_core_cache_stats_breakdown[INST_ACC_R][HIT] = 0
	Total_core_cache_stats_breakdown[INST_ACC_R][HIT_RESERVED] = 0
	Total_core_cache_stats_breakdown[INST_ACC_R][MISS] = 0
	Total_core_cache_stats_breakdown[INST_ACC_R][RESERVATION_FAIL] = 0
	Total_core_cache_stats_breakdown[INST_ACC_R][SECTOR_MISS] = 0
	Total_core_cache_stats_breakdown[L1_WR_ALLOC_R][HIT] = 0
	Total_core_cache_stats_breakdown[L1_WR_ALLOC_R][HIT_RESERVED] = 0
	Total_core_cache_stats_breakdown[L1_WR_ALLOC_R][MISS] = 0
	Total_core_cache_stats_breakdown[L1_WR_ALLOC_R][RESERVATION_FAIL] = 0
	Total_core_cache_stats_breakdown[L1_WR_ALLOC_R][SECTOR_MISS] = 0
	Total_core_cache_stats_breakdown[L2_WR_ALLOC_R][HIT] = 0
	Total_core_cache_stats_breakdown[L2_WR_ALLOC_R][HIT_RESERVED] = 0
	Total_core_cache_stats_breakdown[L2_WR_ALLOC_R][MISS] = 0
	Total_core_cache_stats_breakdown[L2_WR_ALLOC_R][RESERVATION_FAIL] = 0
	Total_core_cache_stats_breakdown[L2_WR_ALLOC_R][SECTOR_MISS] = 0
	Total_core_cache_stats_breakdown[GLOBAL_ACC_R][TOTAL_ACCESS] = 912384
	Total_core_cache_stats_breakdown[TEXTURE_ACC_R][TOTAL_ACCESS] = 8175273
	Total_core_cache_stats_breakdown[GLOBAL_ACC_W][TOTAL_ACCESS] = 1724976

Total_core_cache_fail_stats:
	Total_core_cache_fail_stats_breakdown[GLOBAL_ACC_R][MISS_QUEUE_FULL] = 2014
	Total_core_cache_fail_stats_breakdown[GLOBAL_ACC_W][MISS_QUEUE_FULL] = 100674
Shader 0 warp_id issue ditsribution:
warp_id:
0, 1, 2, 3, 4, 5, 6, 7, 8, 9, 10, 11, 12, 13, 14, 15, 16, 17, 18, 19, 20, 21, 22, 23, 24, 25, 26, 27, 28, 29, 30, 31, 32, 33, 34, 35, 
distro:
2573, 2573, 2573, 2573, 2573, 2573, 2573, 2573, 2573, 2573, 2573, 2573, 2573, 2573, 2573, 2573, 5146, 5146, 5146, 5146, 2573, 2573, 2573, 2573, 2573, 2573, 2573, 2573, 2573, 2573, 2573, 2573, 2573, 2573, 2573, 2573, 
gpgpu_n_tot_thrd_icount = 260840448
gpgpu_n_tot_w_icount = 8151264
gpgpu_n_stall_shd_mem = 15321882
gpgpu_n_mem_read_local = 0
gpgpu_n_mem_write_local = 0
gpgpu_n_mem_read_global = 216488
gpgpu_n_mem_write_global = 7099488
gpgpu_n_mem_texture = 15393
gpgpu_n_mem_const = 0
gpgpu_n_load_insn  = 27599616
gpgpu_n_store_insn = 5174928
gpgpu_n_shmem_insn = 0
gpgpu_n_sstarr_insn = 0
gpgpu_n_tex_insn = 27599616
gpgpu_n_const_mem_insn = 0
gpgpu_n_param_mem_insn = 386496
gpgpu_n_shmem_bkconflict = 0
gpgpu_n_cache_bkconflict = 0
gpgpu_n_intrawarp_mshr_merge = 0
gpgpu_n_cmem_portconflict = 0
gpgpu_stall_shd_mem[c_mem][resource_stall] = 0
gpgpu_stall_shd_mem[s_mem][bk_conf] = 0
gpgpu_stall_shd_mem[gl_mem][resource_stall] = 1702629
gpgpu_stall_shd_mem[gl_mem][coal_stall] = 5260464
gpgpu_stall_shd_mem[gl_mem][data_port_stall] = 0
gpu_reg_bank_conflict_stalls = 0
Warp Occupancy Distribution:
Stall:4123688	W0_Idle:7261906	W0_Scoreboard:116246406	W1:0	W2:0	W3:0	W4:0	W5:0	W6:0	W7:0	W8:0	W9:0	W10:0	W11:0	W12:0	W13:0	W14:0	W15:0	W16:0	W17:0	W18:0	W19:0	W20:0	W21:0	W22:0	W23:0	W24:0	W25:0	W26:0	W27:0	W28:1995840	W29:2079792	W30:0	W31:0	W32:4075632
single_issue_nums: WS0:2055827	WS1:2055827	WS2:2019805	WS3:2019805	
dual_issue_nums: WS0:0	WS1:0	WS2:0	WS3:0	
traffic_breakdown_coretomem[GLOBAL_ACC_R] = 1731904 {8:216488,}
traffic_breakdown_coretomem[GLOBAL_ACC_W] = 111995136 {8:5374512,40:1724976,}
traffic_breakdown_coretomem[TEXTURE_ACC_R] = 123144 {8:15393,}
traffic_breakdown_memtocore[GLOBAL_ACC_R] = 8659520 {40:216488,}
traffic_breakdown_memtocore[GLOBAL_ACC_W] = 56795904 {8:7099488,}
traffic_breakdown_memtocore[TEXTURE_ACC_R] = 2462880 {40:61572,}
maxmflatency = 7540 
max_icnt2mem_latency = 6303 
maxmrqlatency = 571 
max_icnt2sh_latency = 949 
averagemflatency = 2158 
avg_icnt2mem_latency = 1273 
avg_mrq_latency = 29 
avg_icnt2sh_latency = 8 
mrq_lat_table:240366 	179518 	107229 	181520 	287506 	535464 	159998 	24671 	733 	5 	0 	0 	0 	0 	0 	0 	0 	0 	0 	0 	0 	0 	0 	0 	0 	0 	0 	0 	0 	0 	0 	0 	
dq_lat_table:0 	0 	0 	0 	0 	0 	0 	0 	0 	0 	0 	0 	0 	0 	0 	0 	0 	0 	0 	0 	0 	0 	0 	0 	0 	0 	0 	0 	0 	0 	0 	0 	
mf_lat_table:0 	0 	0 	0 	0 	0 	0 	353071 	186097 	833217 	2148944 	3456131 	400088 	0 	0 	0 	0 	0 	0 	0 	0 	0 	0 	0 	0 	0 	0 	0 	0 	0 	0 	0 	
icnt2mem_lat_table:0 	351477 	95751 	63731 	248809 	117741 	108166 	203956 	507279 	1401197 	2874237 	1289100 	69925 	0 	0 	0 	0 	0 	0 	0 	0 	0 	0 	0 	
icnt2sh_lat_table:0 	5754570 	805046 	357750 	211759 	109218 	61541 	30212 	23551 	23901 	0 	0 	0 	0 	0 	0 	0 	0 	0 	0 	0 	0 	0 	0 	
mf_lat_pw_table:0 	0 	0 	0 	0 	0 	0 	14 	58 	72 	96 	607 	24 	0 	0 	0 	0 	0 	0 	0 	0 	0 	0 	0 	0 	0 	0 	0 	0 	0 	0 	0 	
maximum concurrent accesses to same row:
dram[0]:        58        56        56        55        42        50        37        51        46        38        51        50        37        35        58        59 
dram[1]:        56        50        58        51        42        49        37        43        44        35        42        51        29        50        55        56 
dram[2]:        56        51        58        50        34        36        35        43        43        36        44        36        35        52        56        56 
dram[3]:        56        51        59        58        39        35        36        32        38        35        45        37        48        58        49        56 
dram[4]:        56        51        57        58        37        35        42        29        37        35        42        40        36        58        49        50 
dram[5]:        58        53        56        56        44        37        42        35        36        37        38        36        29        57        51        50 
dram[6]:        58        56        56        56        42        34        44        36        36        43        36        37        36        55        57        51 
dram[7]:        54        56        58        56        36        42        50        36        43        44        35        38        29        49        51        58 
dram[8]:        51        56        59        56        36        42        44        36        36        41        30        41        29        49        50        58 
dram[9]:        41        58        58        46        35        67        42        36        40        42        35        42        30        49        42        57 
dram[10]:        38        58        58        43        43        72        48        36        49        41        43        43        35        48        49        56 
dram[11]:        46        58        58        44        47        46        51        37        51        43        44        31        38        51        54        56 
dram[12]:        58        58        50        44        43        44        50        42        51        51        43        35        35        49        56        56 
dram[13]:        56        53        52        50        44        48        46        45        44        56        42        42        35        43        57        57 
dram[14]:        56        49        49        56        43        50        41        40        42        56        40        44        39        46        59        58 
dram[15]:        56        49        47        56        42        36        42        43        36        36        35        44        37        42        58        58 
dram[16]:        56        42        49        56        42        49        42        35        35        42        41        44        44        42        58        58 
dram[17]:        58        42        52        58        43        53        43        30        37        42        36        49        42        36        49        57 
dram[18]:        58        45        50        54        43        42        50        28        33        42        35        49        42        33        49        56 
dram[19]:        50        43        51        50        35        43        50        30        29        40        34        49        32        39        49        56 
dram[20]:        44        44        51        44        30        49        51        35        32        40        31        49        36        36        49        56 
dram[21]:        36        42        44        50        29        59        51        36        35        34        29        49        35        37        37        57 
dram[22]:        35        44        45        51        32        57        43        35        55        31        30        51        42        41        39        58 
dram[23]:        40        51        43        51        32        58        36        35        49        37        58        51        43        35        51        58 
dram[24]:        44        51        43        45        39        54        40        36        49        38        59        50        42        39        50        58 
dram[25]:        44        50        44        44        43        43        56        37        50        44        57        46        36        42        49        57 
dram[26]:        45        49        44        42        35        44        36        31        51        36        49        57        35        43        47        56 
dram[27]:        38        56        42        42        35        42        41        39        48        36        49        58        29        45        39        56 
dram[28]:        37        56        44        58        36        42        37        36        42        49        44        52        36        48        42        56 
dram[29]:        56        57        51        56        36        50        38        37        35        51        41        49        39        50        42        57 
dram[30]:        56        58        56        56        50        58        51        42        38        49        43        46        35        49        44        58 
dram[31]:        56        58        58        58        47        49        51        43        37        49        43        46        35        47        57        58 
maximum service time to same row:
dram[0]:     13842     14779     13997     14136     13687     13710     13751     13771     14137     13574     14016     14771     16131     13960     13699     13847 
dram[1]:     13932     14830     13977     14154     13678     13706     13596     13871     14117     13626     14658     14798     14498     15011     13694     14198 
dram[2]:     13923     14740     13758     14140     13670     13755     13590     13855     14103     13618     14669     14815     14400     15007     13686     14190 
dram[3]:     13916     14681     13751     14113     13666     13746     13582     13674     14081     13611     14642     14806     14357     14911     13675     14161 
dram[4]:     13908     14583     13744     14096     13791     13735     13574     13667     14658     13608     14534     14743     14248     14409     13670     14153 
dram[5]:     14368     14595     13735     14068     13787     13639     13569     13659     14602     13592     14443     14835     14238     14313     14875     14084 
dram[6]:     14200     14601     13726     14060     13779     13309     13561     13651     14561     13585     14369     13755     13754     14298     14832     14077 
dram[7]:     14186     14574     14081     14055     13774     13301     13554     13647     14099     13577     14446     13750     13746     14304     14855     14063 
dram[8]:     14158     14601     14068     14039     13859     13296     13546     13643     14088     13569     14467     13742     13739     14277     14895     14045 
dram[9]:     14156     14514     14043     14021     13831     13285     13542     13763     14079     13562     14974     13735     13731     14177     14906     14033 
dram[10]:     14188     14523     14020     14305     13818     13281     13846     13763     14056     13616     15593     13727     13730     14149     15032     14930 
dram[11]:     14654     14598     14023     14364     13810     13414     13854     13751     13975     13608     15513     13862     13779     14141     14903     14963 
dram[12]:     14613     14720     14148     14369     13806     13406     13847     13747     13956     13602     15382     13868     13771     14160     14864     14951 
dram[13]:     14478     15092     14132     13960     13880     13401     13839     14043     13943     13596     15271     13851     13763     14172     14734     15016 
dram[14]:     14240     15119     14128     13949     13867     13394     13830     14210     13932     13766     16084     13832     13759     16729     15449     14939 
dram[15]:     14225     15360     14049     13927     13862     13573     13822     14178     13924     13798     15988     14924     13897     17052     15416     13944 
dram[16]:     14217     14743     14057     13913     13869     13565     13815     14165     13579     13787     15971     15301     13887     17022     15485     13915 
dram[17]:     14192     14627     14013     13889     13743     13557     13804     14156     13571     13782     14879     15224     13867     16907     15522     13896 
dram[18]:     14176     14526     13987     14172     13734     13549     13631     15442     13565     13869     14764     15128     13851     16811     15003     13876 
dram[19]:     14166     14313     13976     14149     13726     15981     13623     13790     13557     13686     14710     15048     13847     16709     14931     13862 
dram[20]:     14166     14408     14040     14132     13711     16967     13616     13783     13550     13674     14726     15072     13975     16235     14970     13855 
dram[21]:     14153     14738     14032     14092     13698     17473     13600     13772     13612     13664     14623     15059     13968     16332     14354     13838 
dram[22]:     14124     14598     14019     14069     13694     16874     13588     13766     13607     13647     14238     14796     13961     16279     14393     13830 
dram[23]:     14120     14573     14009     14076     13744     16964     13586     13754     13591     13643     14213     14742     13959     16271     14373     13823 
dram[24]:     14229     14461     14003     14358     13490     16740     13731     13754     13582     13771     14888     14525     14397     16229     13859     13887 
dram[25]:     14212     15369     14606     14189     13482     16590     13720     13746     13699     13766     14194     14434     14400     16014     13844     13879 
dram[26]:     14181     15325     14603     14180     13477     14472     13707     13738     13691     13760     14170     14389     14224     16272     13818     13872 
dram[27]:     14899     15326     14579     14177     13469     13704     13614     13715     13604     13746     15091     14373     14197     16248     13808     13867 
dram[28]:     14946     13904     14561     14182     13462     13703     13614     13702     13598     13988     15231     14457     14012     16219     13790     13808 
dram[29]:     15016     13889     14260     14196     13461     13835     13607     13787     13591     13976     15133     14073     14007     16200     13867     13798 
dram[30]:     14859     13875     14233     14025     13730     13826     13603     13778     13582     13968     15052     14057     13975     16321     13860     13787 
dram[31]:     14956     13858     14173     14008     13719     13699     13591     13766     13574     13948     14947     14039     13964     16280     13854     13776 
average row accesses per activate:
dram[0]:  9.924836  9.481250  9.873786 10.401361 10.667598 10.295812 10.484536 11.518414 10.419178 10.732558  9.398754  9.050746  9.453416  8.845930  9.724359 10.271187 
dram[1]:  9.147591  9.442724 10.092409  9.617088 10.361413 10.017858 10.368957 10.654450 10.657304  9.937838  9.710611  9.702875  9.382716  9.269938  9.649681 10.508651 
dram[2]:  9.053731  9.330276  9.928572  9.851132 10.829545  9.620098 10.298734 10.975676 10.670423 10.288515  9.796117  9.588608  8.159459  9.324159 10.338983  9.498432 
dram[3]:  9.123494  9.664557  9.747603  9.778846 11.008696  9.666667 10.511628 10.518135 10.160858 10.002732  9.831716  9.315951  8.862573  9.801282  9.793549  8.839650 
dram[4]: 10.300675  9.132133  9.924836 10.249158 10.111405 10.255208 10.041975 10.074442 10.336065 10.222841  9.591772  9.181818  9.153614  9.215152  9.114458  9.168674 
dram[5]:  9.632912  9.431677 10.616725  9.255320  9.945169  9.869674 10.600522 10.109726 10.534819  9.945800  9.041916  9.733974  9.689102  9.953947  9.866449  9.249240 
dram[6]:  9.456522  9.801282 11.213235  9.851132  9.349753  9.314421 10.943397 10.286802 11.117647 10.300562  9.170732  9.659236  9.163142 10.089701 10.228956  8.484593 
dram[7]:  9.445821  9.475155 10.191276  9.315951 10.136364 10.068877 11.554286 10.184343 10.885057 10.668605  9.781350  9.351851  9.309816  9.512500  9.809677  9.026707 
dram[8]: 10.049342  9.559749 10.938628 10.718309  9.738461 10.457447 10.649076 10.276649 11.242603 10.988060  9.319018  8.745665  8.842566  9.857605  9.221885  9.630915 
dram[9]:  9.944445 10.283784 10.780142 10.198653  9.745502  9.974684 10.706349 10.207070 11.224189 10.665698  8.571023  9.655064  9.832258  9.369231  9.087349 10.756184 
dram[10]:  9.380805 10.282828 10.780919  9.574133  9.916450 10.020356 10.860590 10.090225 11.668712 10.707603  9.008928  9.778846  9.266055  9.588608  9.323077 10.146667 
dram[11]:  9.139394 10.412970 10.739436  9.853896 10.187166 10.460107 10.668421 10.764075 11.600610 10.825444  9.526814  8.760807  8.671429 10.214046  9.545455  9.496875 
dram[12]:  9.563292 10.350340 10.143333 11.003623  9.110844 10.997199 11.807580 10.335038 11.058140 10.901492  9.966997  9.421053  9.117470 10.009869  9.209726  9.044910 
dram[13]: 10.059801 10.656140 10.151007 10.498270 10.076923 11.524927 11.002725  9.722892 10.798295 10.934524  8.784883  9.725240  9.625397  8.946902  9.338462 10.056292 
dram[14]:  8.825073 10.770318 10.882143  9.957377  9.650633 10.848066 11.243017 10.034739 11.489426 10.742690  8.796512 10.146667 10.164430  9.086567  9.774194  9.635783 
dram[15]:  9.123123  9.855306 10.839286  9.278288  9.734015 10.969359 11.720930 10.234848 10.709302 10.435898  9.739550  9.901960  9.796117  9.756411  9.947712  8.839181 
dram[16]:  9.523511  9.273556 10.009933 10.574394  9.674300 11.225071 12.333333  9.829268 10.616279 11.598102  9.769968  9.970491  9.257668  9.835484  9.648734  8.811047 
dram[17]:  9.580441  9.358895 10.780142 11.160583  9.781491 11.789790 12.691824  9.841849 10.249300 10.812317  9.026628  9.533123  9.424149  9.175226  8.812139  9.218182 
dram[18]:  9.712903 10.046205 11.120438 10.157190  9.506234 11.465117 12.402439  9.575472 10.892537 10.129834  9.017804 10.400685  9.970589  8.702005  8.935294  9.585443 
dram[19]:  9.517460  9.677216 10.557094 10.552083  9.966058 11.732142 11.964705  9.272311 11.643312 10.566092  8.777456 10.352739  9.388199  9.528302 10.000000  9.087087 
dram[20]:  9.281734  9.677216  9.980328 10.615385  9.584352 11.372093 12.071217 10.290076 11.246154 11.054380  9.610760 10.192568  9.399381 10.062500  9.873786  8.445378 
dram[21]:  9.917763  9.107463  9.960656 10.881721  9.989821 12.337540 12.616822 10.489637 10.679300 11.012048  9.812903 10.113334  9.305810  9.416667  8.949853  9.389408 
dram[22]:  9.804561  8.716332 10.938628 10.123746  9.448442 12.130841 11.636103  9.646081 10.791177  9.962060  8.533708 10.532872  9.461060  8.708571  9.278288  9.563292 
dram[23]:  9.356037  9.810289 11.395522 10.063123  9.372315 11.119658 11.331476 10.333333 11.102719 10.200000  9.035821 10.378839  9.588608  9.234042  9.733974  9.612180 
dram[24]:  9.086826  9.651898 10.294915  9.811688  9.701235 11.618343 11.428169  9.861314 10.721408 11.002994  9.892157  9.976897 10.086957  9.062687  9.231003  9.859477 
dram[25]:  9.747603  8.721265 10.062914 11.080292  9.732674 11.551320 11.879412 10.107232 10.866468 11.823152  9.751613  9.256881  8.748555  8.967551  8.632479  9.774194 
dram[26]:  9.769231  9.259147 10.486207 10.199325  9.871536 11.722388 11.146006  9.752997 10.512894 11.461060  8.532578 10.036184  9.734824  8.463687  8.746398 10.089701 
dram[27]:  9.528302  9.944445 11.680769  9.603834 10.092308 11.316092 11.043596  9.880778 10.916667 11.329230  9.253822 10.508591  9.424149  8.521127  8.768786 10.408935 
dram[28]:  8.929204  9.775641 10.885715  9.764516 10.228572 10.902778 10.615183 10.056931 11.344615 10.683140  9.807074  9.902280  9.671974  9.113772  9.712461 10.161616 
dram[29]:  9.305810  9.174699 10.046205 10.460481  9.881909 11.446064 11.485876 10.475578 10.910979 12.026316 10.132891  9.730769  9.841935  8.935484  9.041667  9.338462 
dram[30]:  9.747603  9.245455  9.647619 10.532872 10.601078 11.730539 11.514205 10.715039 10.436260 12.052631  9.249240  9.963935  9.634069  8.355371  9.360000 10.026230 
dram[31]:  9.080838  9.080358 10.882563  9.905538 10.726776 11.258620 11.062671 10.611979 10.824047 10.759531  8.880117  9.714744  9.594339  8.702005  9.733119  9.551724 
average row locality = 1717010/171159 = 10.031667
number of total memory accesses made:
dram[0]:         0         0         0         0         0         0         0         0         0         0         0         0         0         0         0         0 
dram[1]:         0         0         0         0         0         0         0         0         0         0         0         0         0         0         0         0 
dram[2]:         0         0         0         0         0         0         0         0         0         0         0         0         0         0         0         0 
dram[3]:         0         0         0         0         0         0         0         0         0         0         0         0         0         0         0         0 
dram[4]:         0         0         0         0         0         0         0         0         0         0         0         0         0         0         0         0 
dram[5]:         0         0         0         0         0         0         0         0         0         0         0         0         0         0         0         0 
[...]
n_req = 56104 
total_req = 126077 

Dual Bus Interface Util: 
issued_total_row = 13068 
issued_total_col = 126077 
Row_Bus_Util =  0.027825 
CoL_Bus_Util = 0.268449 
Either_Row_CoL_Bus_Util = 0.286171 
Issued_on_Two_Bus_Simul_Util = 0.010103 
issued_two_Eff = 0.035305 
queue_avg = 2.373624 


dram_util_bins: 0 0 0 0 0 0 0 0 0 0
dram_eff_bins: 0 0 0 0 0 0 0 0 0 0
mrqq: max=45 avg=2.37362
Memory Partition 28: 
Cache L2_bank_056:

Cache L2_bank_057:

In Dram Latency Queue (total = 0): 
DRAM[28]: 16 bks, busW=16 BL=2 CL=12, tRRD=3 tCCD=1, tRCD=12 tRAS=28 tRP=12 tRC=40
n_cmd=469649 n_nop=335166 n_act=6507 n_pre=6491 n_ref_event=0 n_req=56096 n_rd=914 n_rd_L2_A=0 n_write=0 n_wr_bk=125288 bw_util=0.2687
n_activity=279218 dram_eff=0.452
bk0: 39a 445901i bk1: 51a 448074i bk2: 54a 446455i bk3: 42a 447936i bk4: 80a 440960i bk5: 64a 443267i bk6: 61a 440560i bk7: 69a 441580i bk8: 75a 443144i bk9: 82a 444100i bk10: 35a 446664i bk11: 55a 447555i bk12: 39a 446063i bk13: 38a 446737i bk14: 73a 445826i bk15: 57a 447625i 

------------------------------------------------------------------------

Row_Buffer_Locality = 0.884002
Row_Buffer_Locality_read = 0.708972
Row_Buffer_Locality_write = 0.886901
Bank_Level_Parallism = 1.832258
Bank_Level_Parallism_Col = 1.683632
Bank_Level_Parallism_Ready = 1.332515
write_to_read_ratio_blp_rw_average = 0.982049
GrpLevelPara = 1.456364 

BW Util details:
bwutil = 0.268716 
total_CMD = 469649 
util_bw = 126202 
Wasted_Col = 86735 
Wasted_Row = 31588 
Idle = 225124 

BW Util Bottlenecks: 
RCDc_limit = 2927 
RCDWRc_limit = 35981 
WTRc_limit = 596 
RTWc_limit = 1625 
CCDLc_limit = 68179 
rwq = 0 
CCDLc_limit_alone = 68086 
WTRc_limit_alone = 557 
RTWc_limit_alone = 1571 

Commands details: 
total_CMD = 469649 
n_nop = 335166 
Read = 914 
Write = 0 
L2_Alloc = 0 
L2_WB = 125288 
n_act = 6507 
n_pre = 6491 
n_ref = 0 
n_req = 56096 
total_req = 126202 

Dual Bus Interface Util: 
issued_total_row = 12998 
issued_total_col = 126202 
Row_Bus_Util =  0.027676 
CoL_Bus_Util = 0.268716 
Either_Row_CoL_Bus_Util = 0.286348 
Issued_on_Two_Bus_Simul_Util = 0.010044 
issued_two_Eff = 0.035075 
queue_avg = 2.316034 


dram_util_bins: 0 0 0 0 0 0 0 0 0 0
dram_eff_bins: 0 0 0 0 0 0 0 0 0 0
mrqq: max=55 avg=2.31603
Memory Partition 29: 
Cache L2_bank_058:

Cache L2_bank_059:

In Dram Latency Queue (total = 0): 
DRAM[29]: 16 bks, busW=16 BL=2 CL=12, tRRD=3 tCCD=1, tRCD=12 tRAS=28 tRP=12 tRC=40
n_cmd=469649 n_nop=335471 n_act=6485 n_pre=6469 n_ref_event=0 n_req=56070 n_rd=867 n_rd_L2_A=0 n_write=0 n_wr_bk=125155 bw_util=0.2683
n_activity=277911 dram_eff=0.4535
bk0: 22a 446865i bk1: 60a 447239i bk2: 55a 446570i bk3: 45a 447708i bk4: 59a 441306i bk5: 86a 443321i bk6: 69a 441020i bk7: 67a 441575i bk8: 59a 442417i bk9: 77a 444269i bk10: 45a 446511i bk11: 41a 447311i bk12: 36a 446000i bk13: 47a 446458i bk14: 57a 445301i bk15: 42a 447571i 

------------------------------------------------------------------------

Row_Buffer_Locality = 0.884341
Row_Buffer_Locality_read = 0.710496
Row_Buffer_Locality_write = 0.887071
Bank_Level_Parallism = 1.852337
Bank_Level_Parallism_Col = 1.700412
Bank_Level_Parallism_Ready = 1.342408
write_to_read_ratio_blp_rw_average = 0.983115
GrpLevelPara = 1.466104 

BW Util details:
bwutil = 0.268332 
total_CMD = 469649 
util_bw = 126022 
Wasted_Col = 85494 
Wasted_Row = 30887 
Idle = 227246 

BW Util Bottlenecks: 
RCDc_limit = 2772 
RCDWRc_limit = 35782 
WTRc_limit = 564 
RTWc_limit = 1587 
CCDLc_limit = 68098 
rwq = 0 
CCDLc_limit_alone = 67997 
WTRc_limit_alone = 537 
RTWc_limit_alone = 1513 

Commands details: 
total_CMD = 469649 
n_nop = 335471 
Read = 867 
Write = 0 
L2_Alloc = 0 
L2_WB = 125155 
n_act = 6485 
n_pre = 6469 
n_ref = 0 
n_req = 56070 
total_req = 126022 

Dual Bus Interface Util: 
issued_total_row = 12954 
issued_total_col = 126022 
Row_Bus_Util =  0.027582 
CoL_Bus_Util = 0.268332 
Either_Row_CoL_Bus_Util = 0.285698 
Issued_on_Two_Bus_Simul_Util = 0.010216 
issued_two_Eff = 0.035758 
queue_avg = 2.362867 


dram_util_bins: 0 0 0 0 0 0 0 0 0 0
dram_eff_bins: 0 0 0 0 0 0 0 0 0 0
mrqq: max=64 avg=2.36287
Memory Partition 30: 
Cache L2_bank_060:

Cache L2_bank_061:

In Dram Latency Queue (total = 0): 
DRAM[30]: 16 bks, busW=16 BL=2 CL=12, tRRD=3 tCCD=1, tRCD=12 tRAS=28 tRP=12 tRC=40
n_cmd=469649 n_nop=335205 n_act=6469 n_pre=6453 n_ref_event=0 n_req=56137 n_rd=932 n_rd_L2_A=0 n_write=0 n_wr_bk=125301 bw_util=0.2688
n_activity=278787 dram_eff=0.4528
bk0: 54a 446638i bk1: 46a 447148i bk2: 47a 447004i bk3: 55a 448008i bk4: 71a 440850i bk5: 88a 443846i bk6: 78a 441173i bk7: 70a 441784i bk8: 53a 442407i bk9: 63a 444164i bk10: 53a 446206i bk11: 39a 447500i bk12: 42a 445748i bk13: 55a 446680i bk14: 55a 446224i bk15: 63a 447725i 

------------------------------------------------------------------------

Row_Buffer_Locality = 0.884764
Row_Buffer_Locality_read = 0.718884
Row_Buffer_Locality_write = 0.887565
Bank_Level_Parallism = 1.830649
Bank_Level_Parallism_Col = 1.681580
Bank_Level_Parallism_Ready = 1.329169
write_to_read_ratio_blp_rw_average = 0.983048
GrpLevelPara = 1.453632 

BW Util details:
bwutil = 0.268782 
total_CMD = 469649 
util_bw = 126233 
Wasted_Col = 87063 
Wasted_Row = 31107 
Idle = 225246 

BW Util Bottlenecks: 
RCDc_limit = 2837 
RCDWRc_limit = 35975 
WTRc_limit = 685 
RTWc_limit = 2175 
CCDLc_limit = 69141 
rwq = 0 
CCDLc_limit_alone = 68987 
WTRc_limit_alone = 641 
RTWc_limit_alone = 2065 

Commands details: 
total_CMD = 469649 
n_nop = 335205 
Read = 932 
Write = 0 
L2_Alloc = 0 
L2_WB = 125301 
n_act = 6469 
n_pre = 6453 
n_ref = 0 
n_req = 56137 
total_req = 126233 

Dual Bus Interface Util: 
issued_total_row = 12922 
issued_total_col = 126233 
Row_Bus_Util =  0.027514 
CoL_Bus_Util = 0.268782 
Either_Row_CoL_Bus_Util = 0.286265 
Issued_on_Two_Bus_Simul_Util = 0.010031 
issued_two_Eff = 0.035041 
queue_avg = 2.320984 


dram_util_bins: 0 0 0 0 0 0 0 0 0 0
dram_eff_bins: 0 0 0 0 0 0 0 0 0 0
mrqq: max=64 avg=2.32098
Memory Partition 31: 
Cache L2_bank_062:

Cache L2_bank_063:

In Dram Latency Queue (total = 0): 
DRAM[31]: 16 bks, busW=16 BL=2 CL=12, tRRD=3 tCCD=1, tRCD=12 tRAS=28 tRP=12 tRC=40
n_cmd=469649 n_nop=335397 n_act=6537 n_pre=6521 n_ref_event=0 n_req=56071 n_rd=906 n_rd_L2_A=0 n_write=0 n_wr_bk=125055 bw_util=0.2682
n_activity=278895 dram_eff=0.4516
bk0: 67a 445801i bk1: 36a 447473i bk2: 38a 446357i bk3: 58a 447394i bk4: 65a 440885i bk5: 56a 443912i bk6: 65a 440821i bk7: 67a 440458i bk8: 50a 443090i bk9: 68a 443977i bk10: 52a 445612i bk11: 57a 447413i bk12: 48a 446044i bk13: 54a 446865i bk14: 54a 446749i bk15: 71a 447151i 

------------------------------------------------------------------------

Row_Buffer_Locality = 0.883416
Row_Buffer_Locality_read = 0.696468
Row_Buffer_Locality_write = 0.886486
Bank_Level_Parallism = 1.853533
Bank_Level_Parallism_Col = 1.700708
Bank_Level_Parallism_Ready = 1.349823
write_to_read_ratio_blp_rw_average = 0.981499
GrpLevelPara = 1.471265 

BW Util details:
bwutil = 0.268202 
total_CMD = 469649 
util_bw = 125961 
Wasted_Col = 85899 
Wasted_Row = 31164 
Idle = 226625 

BW Util Bottlenecks: 
RCDc_limit = 3043 
RCDWRc_limit = 35729 
WTRc_limit = 612 
RTWc_limit = 1770 
CCDLc_limit = 66895 
rwq = 0 
CCDLc_limit_alone = 66773 
WTRc_limit_alone = 558 
RTWc_limit_alone = 1702 

Commands details: 
total_CMD = 469649 
n_nop = 335397 
Read = 906 
Write = 0 
L2_Alloc = 0 
L2_WB = 125055 
n_act = 6537 
n_pre = 6521 
n_ref = 0 
n_req = 56071 
total_req = 125961 

Dual Bus Interface Util: 
issued_total_row = 13058 
issued_total_col = 125961 
Row_Bus_Util =  0.027804 
CoL_Bus_Util = 0.268202 
Either_Row_CoL_Bus_Util = 0.285856 
Issued_on_Two_Bus_Simul_Util = 0.010150 
issued_two_Eff = 0.035508 
queue_avg = 2.326733 


dram_util_bins: 0 0 0 0 0 0 0 0 0 0
dram_eff_bins: 0 0 0 0 0 0 0 0 0 0
mrqq: max=45 avg=2.32673

========= L2 cache stats =========
L2_cache_bank[0]: Access = 66106, Miss = 33819, Miss_rate = 0.512, Pending_hits = 0, Reservation_fails = 0
L2_cache_bank[1]: Access = 65944, Miss = 33864, Miss_rate = 0.514, Pending_hits = 0, Reservation_fails = 0
L2_cache_bank[2]: Access = 66079, Miss = 33834, Miss_rate = 0.512, Pending_hits = 0, Reservation_fails = 0
L2_cache_bank[3]: Access = 65883, Miss = 33833, Miss_rate = 0.514, Pending_hits = 0, Reservation_fails = 0
L2_cache_bank[4]: Access = 66035, Miss = 33903, Miss_rate = 0.513, Pending_hits = 0, Reservation_fails = 0
L2_cache_bank[5]: Access = 65922, Miss = 33851, Miss_rate = 0.514, Pending_hits = 0, Reservation_fails = 0
L2_cache_bank[6]: Access = 66051, Miss = 33844, Miss_rate = 0.512, Pending_hits = 0, Reservation_fails = 0
L2_cache_bank[7]: Access = 65909, Miss = 33862, Miss_rate = 0.514, Pending_hits = 0, Reservation_fails = 0
L2_cache_bank[8]: Access = 66007, Miss = 33862, Miss_rate = 0.513, Pending_hits = 0, Reservation_fails = 0
L2_cache_bank[9]: Access = 65933, Miss = 33904, Miss_rate = 0.514, Pending_hits = 0, Reservation_fails = 0
L2_cache_bank[10]: Access = 66073, Miss = 33866, Miss_rate = 0.513, Pending_hits = 0, Reservation_fails = 0
L2_cache_bank[11]: Access = 65970, Miss = 33831, Miss_rate = 0.513, Pending_hits = 0, Reservation_fails = 0
L2_cache_bank[12]: Access = 65706, Miss = 33844, Miss_rate = 0.515, Pending_hits = 0, Reservation_fails = 0
L2_cache_bank[13]: Access = 65895, Miss = 33870, Miss_rate = 0.514, Pending_hits = 0, Reservation_fails = 0
L2_cache_bank[14]: Access = 65895, Miss = 33828, Miss_rate = 0.513, Pending_hits = 0, Reservation_fails = 0
L2_cache_bank[15]: Access = 65842, Miss = 33782, Miss_rate = 0.513, Pending_hits = 0, Reservation_fails = 0
L2_cache_bank[16]: Access = 65755, Miss = 33888, Miss_rate = 0.515, Pending_hits = 0, Reservation_fails = 0
L2_cache_bank[17]: Access = 65863, Miss = 33882, Miss_rate = 0.514, Pending_hits = 0, Reservation_fails = 0
L2_cache_bank[18]: Access = 65895, Miss = 33839, Miss_rate = 0.514, Pending_hits = 0, Reservation_fails = 0
L2_cache_bank[19]: Access = 65618, Miss = 33860, Miss_rate = 0.516, Pending_hits = 0, Reservation_fails = 0
L2_cache_bank[20]: Access = 65952, Miss = 33836, Miss_rate = 0.513, Pending_hits = 0, Reservation_fails = 0
L2_cache_bank[21]: Access = 65355, Miss = 33789, Miss_rate = 0.517, Pending_hits = 0, Reservation_fails = 0
L2_cache_bank[22]: Access = 66069, Miss = 33859, Miss_rate = 0.512, Pending_hits = 0, Reservation_fails = 0
L2_cache_bank[23]: Access = 65435, Miss = 33824, Miss_rate = 0.517, Pending_hits = 0, Reservation_fails = 0
L2_cache_bank[24]: Access = 65876, Miss = 33870, Miss_rate = 0.514, Pending_hits = 0, Reservation_fails = 0
L2_cache_bank[25]: Access = 65417, Miss = 33889, Miss_rate = 0.518, Pending_hits = 0, Reservation_fails = 0
L2_cache_bank[26]: Access = 66109, Miss = 33875, Miss_rate = 0.512, Pending_hits = 0, Reservation_fails = 0
L2_cache_bank[27]: Access = 65373, Miss = 33884, Miss_rate = 0.518, Pending_hits = 0, Reservation_fails = 0
L2_cache_bank[28]: Access = 66053, Miss = 33839, Miss_rate = 0.512, Pending_hits = 0, Reservation_fails = 0
L2_cache_bank[29]: Access = 65448, Miss = 33853, Miss_rate = 0.517, Pending_hits = 0, Reservation_fails = 0
L2_cache_bank[30]: Access = 65888, Miss = 33736, Miss_rate = 0.512, Pending_hits = 0, Reservation_fails = 0
L2_cache_bank[31]: Access = 65244, Miss = 33796, Miss_rate = 0.518, Pending_hits = 0, Reservation_fails = 0
L2_cache_bank[32]: Access = 65840, Miss = 33688, Miss_rate = 0.512, Pending_hits = 0, Reservation_fails = 0
L2_cache_bank[33]: Access = 65227, Miss = 33848, Miss_rate = 0.519, Pending_hits = 0, Reservation_fails = 0
L2_cache_bank[34]: Access = 65925, Miss = 33686, Miss_rate = 0.511, Pending_hits = 0, Reservation_fails = 0
L2_cache_bank[35]: Access = 65273, Miss = 33876, Miss_rate = 0.519, Pending_hits = 0, Reservation_fails = 0
L2_cache_bank[36]: Access = 65774, Miss = 33693, Miss_rate = 0.512, Pending_hits = 0, Reservation_fails = 0
L2_cache_bank[37]: Access = 65216, Miss = 33816, Miss_rate = 0.519, Pending_hits = 0, Reservation_fails = 0
L2_cache_bank[38]: Access = 65772, Miss = 33724, Miss_rate = 0.513, Pending_hits = 0, Reservation_fails = 0
L2_cache_bank[39]: Access = 65325, Miss = 33829, Miss_rate = 0.518, Pending_hits = 0, Reservation_fails = 0
L2_cache_bank[40]: Access = 66063, Miss = 33784, Miss_rate = 0.511, Pending_hits = 0, Reservation_fails = 0
L2_cache_bank[41]: Access = 65422, Miss = 33818, Miss_rate = 0.517, Pending_hits = 0, Reservation_fails = 0
L2_cache_bank[42]: Access = 66149, Miss = 33802, Miss_rate = 0.511, Pending_hits = 0, Reservation_fails = 0
L2_cache_bank[43]: Access = 65117, Miss = 33857, Miss_rate = 0.520, Pending_hits = 0, Reservation_fails = 0
L2_cache_bank[44]: Access = 66066, Miss = 33792, Miss_rate = 0.511, Pending_hits = 0, Reservation_fails = 0
L2_cache_bank[45]: Access = 65009, Miss = 33831, Miss_rate = 0.520, Pending_hits = 0, Reservation_fails = 0
L2_cache_bank[46]: Access = 66149, Miss = 33808, Miss_rate = 0.511, Pending_hits = 0, Reservation_fails = 0
L2_cache_bank[47]: Access = 65067, Miss = 33860, Miss_rate = 0.520, Pending_hits = 0, Reservation_fails = 0
L2_cache_bank[48]: Access = 66134, Miss = 33818, Miss_rate = 0.511, Pending_hits = 0, Reservation_fails = 0
L2_cache_bank[49]: Access = 65023, Miss = 33832, Miss_rate = 0.520, Pending_hits = 0, Reservation_fails = 0
L2_cache_bank[50]: Access = 66016, Miss = 33827, Miss_rate = 0.512, Pending_hits = 0, Reservation_fails = 0
L2_cache_bank[51]: Access = 65076, Miss = 33851, Miss_rate = 0.520, Pending_hits = 0, Reservation_fails = 0
L2_cache_bank[52]: Access = 66145, Miss = 33808, Miss_rate = 0.511, Pending_hits = 0, Reservation_fails = 0
L2_cache_bank[53]: Access = 64913, Miss = 33867, Miss_rate = 0.522, Pending_hits = 0, Reservation_fails = 0
L2_cache_bank[54]: Access = 66076, Miss = 33848, Miss_rate = 0.512, Pending_hits = 0, Reservation_fails = 0
L2_cache_bank[55]: Access = 64970, Miss = 33855, Miss_rate = 0.521, Pending_hits = 0, Reservation_fails = 0
L2_cache_bank[56]: Access = 66161, Miss = 33852, Miss_rate = 0.512, Pending_hits = 0, Reservation_fails = 0
L2_cache_bank[57]: Access = 65026, Miss = 33843, Miss_rate = 0.520, Pending_hits = 0, Reservation_fails = 0
L2_cache_bank[58]: Access = 66129, Miss = 33779, Miss_rate = 0.511, Pending_hits = 0, Reservation_fails = 0
L2_cache_bank[59]: Access = 65104, Miss = 33872, Miss_rate = 0.520, Pending_hits = 0, Reservation_fails = 0
L2_cache_bank[60]: Access = 65975, Miss = 33836, Miss_rate = 0.513, Pending_hits = 0, Reservation_fails = 0
L2_cache_bank[61]: Access = 65002, Miss = 33873, Miss_rate = 0.521, Pending_hits = 0, Reservation_fails = 0
L2_cache_bank[62]: Access = 66097, Miss = 33829, Miss_rate = 0.512, Pending_hits = 0, Reservation_fails = 0
L2_cache_bank[63]: Access = 64943, Miss = 33870, Miss_rate = 0.522, Pending_hits = 0, Reservation_fails = 0
L2_total_cache_accesses = 4204784
L2_total_cache_misses = 2165288
L2_total_cache_miss_rate = 0.5150
L2_total_cache_pending_hits = 0
L2_total_cache_reservation_fails = 0
L2_total_cache_breakdown:
	L2_cache_stats_breakdown[GLOBAL_ACC_R][HIT] = 323710
	L2_cache_stats_breakdown[GLOBAL_ACC_R][HIT_RESERVED] = 0
	L2_cache_stats_breakdown[GLOBAL_ACC_R][MISS] = 7768
	L2_cache_stats_breakdown[GLOBAL_ACC_R][RESERVATION_FAIL] = 0
	L2_cache_stats_breakdown[GLOBAL_ACC_R][SECTOR_MISS] = 21222
	L2_cache_stats_breakdown[LOCAL_ACC_R][HIT] = 0
	L2_cache_stats_breakdown[LOCAL_ACC_R][HIT_RESERVED] = 0
	L2_cache_stats_breakdown[LOCAL_ACC_R][MISS] = 0
	L2_cache_stats_breakdown[LOCAL_ACC_R][RESERVATION_FAIL] = 0
	L2_cache_stats_breakdown[LOCAL_ACC_R][SECTOR_MISS] = 0
	L2_cache_stats_breakdown[CONST_ACC_R][HIT] = 0
	L2_cache_stats_breakdown[CONST_ACC_R][HIT_RESERVED] = 0
	L2_cache_stats_breakdown[CONST_ACC_R][MISS] = 0
	L2_cache_stats_breakdown[CONST_ACC_R][RESERVATION_FAIL] = 0
	L2_cache_stats_breakdown[CONST_ACC_R][SECTOR_MISS] = 0
	L2_cache_stats_breakdown[TEXTURE_ACC_R][HIT] = 61572
	L2_cache_stats_breakdown[TEXTURE_ACC_R][HIT_RESERVED] = 0
	L2_cache_stats_breakdown[TEXTURE_ACC_R][MISS] = 0
	L2_cache_stats_breakdown[TEXTURE_ACC_R][RESERVATION_FAIL] = 0
	L2_cache_stats_breakdown[TEXTURE_ACC_R][SECTOR_MISS] = 0
	L2_cache_stats_breakdown[GLOBAL_ACC_W][HIT] = 1654214
	L2_cache_stats_breakdown[GLOBAL_ACC_W][HIT_RESERVED] = 0
	L2_cache_stats_breakdown[GLOBAL_ACC_W][MISS] = 134936
	L2_cache_stats_breakdown[GLOBAL_ACC_W][RESERVATION_FAIL] = 0
	L2_cache_stats_breakdown[GLOBAL_ACC_W][SECTOR_MISS] = 2001362
	L2_cache_stats_breakdown[LOCAL_ACC_W][HIT] = 0
	L2_cache_stats_breakdown[LOCAL_ACC_W][HIT_RESERVED] = 0
	L2_cache_stats_breakdown[LOCAL_ACC_W][MISS] = 0
	L2_cache_stats_breakdown[LOCAL_ACC_W][RESERVATION_FAIL] = 0
	L2_cache_stats_breakdown[LOCAL_ACC_W][SECTOR_MISS] = 0
	L2_cache_stats_breakdown[L1_WRBK_ACC][HIT] = 0
	L2_cache_stats_breakdown[L1_WRBK_ACC][HIT_RESERVED] = 0
	L2_cache_stats_breakdown[L1_WRBK_ACC][MISS] = 0
	L2_cache_stats_breakdown[L1_WRBK_ACC][RESERVATION_FAIL] = 0
	L2_cache_stats_breakdown[L1_WRBK_ACC][SECTOR_MISS] = 0
	L2_cache_stats_breakdown[L2_WRBK_ACC][HIT] = 0
	L2_cache_stats_breakdown[L2_WRBK_ACC][HIT_RESERVED] = 0
	L2_cache_stats_breakdown[L2_WRBK_ACC][MISS] = 0
	L2_cache_stats_breakdown[L2_WRBK_ACC][RESERVATION_FAIL] = 0
	L2_cache_stats_breakdown[L2_WRBK_ACC][SECTOR_MISS] = 0
	L2_cache_stats_breakdown[INST_ACC_R][HIT] = 0
	L2_cache_stats_breakdown[INST_ACC_R][HIT_RESERVED] = 0
	L2_cache_stats_breakdown[INST_ACC_R][MISS] = 0
	L2_cache_stats_breakdown[INST_ACC_R][RESERVATION_FAIL] = 0
	L2_cache_stats_breakdown[INST_ACC_R][SECTOR_MISS] = 0
	L2_cache_stats_breakdown[L1_WR_ALLOC_R][HIT] = 0
	L2_cache_stats_breakdown[L1_WR_ALLOC_R][HIT_RESERVED] = 0
	L2_cache_stats_breakdown[L1_WR_ALLOC_R][MISS] = 0
	L2_cache_stats_breakdown[L1_WR_ALLOC_R][RESERVATION_FAIL] = 0
	L2_cache_stats_breakdown[L1_WR_ALLOC_R][SECTOR_MISS] = 0
	L2_cache_stats_breakdown[L2_WR_ALLOC_R][HIT] = 0
	L2_cache_stats_breakdown[L2_WR_ALLOC_R][HIT_RESERVED] = 0
	L2_cache_stats_breakdown[L2_WR_ALLOC_R][MISS] = 0
	L2_cache_stats_breakdown[L2_WR_ALLOC_R][RESERVATION_FAIL] = 0
	L2_cache_stats_breakdown[L2_WR_ALLOC_R][SECTOR_MISS] = 0
	L2_cache_stats_breakdown[GLOBAL_ACC_R][TOTAL_ACCESS] = 352700
	L2_cache_stats_breakdown[TEXTURE_ACC_R][TOTAL_ACCESS] = 61572
	L2_cache_stats_breakdown[GLOBAL_ACC_W][TOTAL_ACCESS] = 3790512
L2_total_cache_reservation_fail_breakdown:
L2_cache_data_port_util = 0.150
L2_cache_fill_port_util = 0.001

icnt_total_pkts_mem_to_simt=10135280
icnt_total_pkts_simt_to_mem=10089101
LD_mem_lat_dist  0 0 0 0 0 0 0 0 0 0 0 0 0 0 0 0 0 0 0 0 0 0 0 0 0 0 0
ST_mem_lat_dist  0 0 0 0 0 0 0 0 0 0 0 0 0 0 0 0 0 0 0 0 0 0 0 0 0 0 0
----------------------------Interconnect-DETAILS--------------------------------
Req_Network_injected_packets_num = 10089101
Req_Network_cycles = 625463
Req_Network_injected_packets_per_cycle =      16.1306 
Req_Network_conflicts_per_cycle =      24.6342
Req_Network_conflicts_per_cycle_util =      25.4672
Req_Bank_Level_Parallism =      16.6760
Req_Network_in_buffer_full_per_cycle =       2.0136
Req_Network_in_buffer_avg_util =      78.1556
Req_Network_out_buffer_full_per_cycle =       0.8865
Req_Network_out_buffer_avg_util =     136.6840

Reply_Network_injected_packets_num = 10135280
Reply_Network_cycles = 625463
Reply_Network_injected_packets_per_cycle =       16.2044
Reply_Network_conflicts_per_cycle =        6.5696
Reply_Network_conflicts_per_cycle_util =       6.8239
Reply_Bank_Level_Parallism =      16.8317
Reply_Network_in_buffer_full_per_cycle =       0.0008
Reply_Network_in_buffer_avg_util =       1.3560
Reply_Network_out_buffer_full_per_cycle =       0.0000
Reply_Network_out_buffer_avg_util =       0.2026
----------------------------END-of-Interconnect-DETAILS-------------------------


gpgpu_simulation_time = 0 days, 1 hrs, 2 min, 35 sec (3755 sec)
gpgpu_simulation_rate = 68926 (inst/sec)
gpgpu_simulation_rate = 166 (cycle/sec)
gpgpu_silicon_slowdown = 6819277x
GPGPU-Sim: synchronize waiting for inactive GPU simulation
GPGPU-Sim API: Stream Manager State
GPGPU-Sim: detected inactive GPU simulation thread
GPGPU-Sim: *** exit detected ***
