

        *** GPGPU-Sim Simulator Version 4.0.0  [build gpgpu-sim_git-commit-ffe0a1a00e984ecce9bf36e17ab94c4de0de8108_modified_0.0] ***


GPGPU-Sim PTX: simulation mode 0 (can change with PTX_SIM_MODE_FUNC environment variable:
               1=functional simulation only, 0=detailed performance simulator)
GPGPU-Sim PTX: overriding embedded ptx with ptx file (PTX_SIM_USE_PTX_FILE is set)
GPGPU-Sim: Configuration options:

-save_embedded_ptx                      0 # saves ptx files embedded in binary as <n>.ptx
-keep                                   0 # keep intermediate files created by GPGPU-Sim when interfacing with external programs
-gpgpu_ptx_save_converted_ptxplus                    0 # Saved converted ptxplus to a file
-gpgpu_occupancy_sm_number                   70 # The SM number to pass to ptxas when getting register usage for computing GPU occupancy. This parameter is required in the config.
-ptx_opcode_latency_int      4,13,4,5,145,21 # Opcode latencies for integers <ADD,MAX,MUL,MAD,DIV,SHFL>Default 1,1,19,25,145,32
-ptx_opcode_latency_fp          4,13,4,5,39 # Opcode latencies for single precision floating points <ADD,MAX,MUL,MAD,DIV>Default 1,1,1,1,30
-ptx_opcode_latency_dp         8,19,8,8,330 # Opcode latencies for double precision floating points <ADD,MAX,MUL,MAD,DIV>Default 8,8,8,8,335
-ptx_opcode_latency_sfu                  100 # Opcode latencies for SFU instructionsDefault 8
-ptx_opcode_latency_tesnor                   64 # Opcode latencies for Tensor instructionsDefault 64
-ptx_opcode_initiation_int          2,2,2,2,8,4 # Opcode initiation intervals for integers <ADD,MAX,MUL,MAD,DIV,SHFL>Default 1,1,4,4,32,4
-ptx_opcode_initiation_fp            2,2,2,2,4 # Opcode initiation intervals for single precision floating points <ADD,MAX,MUL,MAD,DIV>Default 1,1,1,1,5
-ptx_opcode_initiation_dp          4,4,4,4,130 # Opcode initiation intervals for double precision floating points <ADD,MAX,MUL,MAD,DIV>Default 8,8,8,8,130
-ptx_opcode_initiation_sfu                    8 # Opcode initiation intervals for sfu instructionsDefault 8
-ptx_opcode_initiation_tensor                   64 # Opcode initiation intervals for tensor instructionsDefault 64
-cdp_latency         7200,8000,100,12000,1600 # CDP API latency <cudaStreamCreateWithFlags, cudaGetParameterBufferV2_init_perWarp, cudaGetParameterBufferV2_perKernel, cudaLaunchDeviceV2_init_perWarp, cudaLaunchDevicV2_perKernel>Default 7200,8000,100,12000,1600
-network_mode                           2 # Interconnection network mode
-inter_config_file                   mesh # Interconnection network config file
-icnt_in_buffer_limit                  512 # in_buffer_limit
-icnt_out_buffer_limit                  512 # out_buffer_limit
-icnt_subnets                           2 # subnets
-icnt_arbiter_algo                      1 # arbiter_algo
-icnt_verbose                           0 # inct_verbose
-icnt_grant_cycles                      1 # grant_cycles
-gpgpu_ptx_use_cuobjdump                    1 # Use cuobjdump to extract ptx and sass from binaries
-gpgpu_experimental_lib_support                    0 # Try to extract code from cuda libraries [Broken because of unknown cudaGetExportTable]
-checkpoint_option                      0 #  checkpointing flag (0 = no checkpoint)
-checkpoint_kernel                      1 #  checkpointing during execution of which kernel (1- 1st kernel)
-checkpoint_CTA                         0 #  checkpointing after # of CTA (< less than total CTA)
-resume_option                          0 #  resume flag (0 = no resume)
-resume_kernel                          0 #  Resume from which kernel (1= 1st kernel)
-resume_CTA                             0 #  resume from which CTA 
-checkpoint_CTA_t                       0 #  resume from which CTA 
-checkpoint_insn_Y                      0 #  resume from which CTA 
-gpgpu_ptx_convert_to_ptxplus                    0 # Convert SASS (native ISA) to ptxplus and run ptxplus
-gpgpu_ptx_force_max_capability                   70 # Force maximum compute capability
-gpgpu_ptx_inst_debug_to_file                    0 # Dump executed instructions' debug information to file
-gpgpu_ptx_inst_debug_file       inst_debug.txt # Executed instructions' debug output file
-gpgpu_ptx_inst_debug_thread_uid                    1 # Thread UID for executed instructions' debug output
-gpgpu_n_mem_for_l2wb_pcommit                   32 # number of memory modules (e.g. memory controllers) in gpu
-gpgpu_n_sub_partition_per_mchannel_for_l2wb_pcommit                    2 # number of memory subpartition in each memory module
-gpgpu_dl2_bsize_for_l2wb_pcommit                  128 # default 128 bytes
-gpgpu_simd_model                       1 # 1 = post-dominator
-gpgpu_shader_core_pipeline              2048:32 # shader core pipeline config, i.e., {<nthread>:<warpsize>}
-gpgpu_tex_cache:l1  N:4:128:256,L:R:m:N:L,T:512:8,128:2 # per-shader L1 texture cache  (READ-ONLY) config  {<nsets>:<bsize>:<assoc>,<rep>:<wr>:<alloc>:<wr_alloc>,<mshr>:<N>:<merge>,<mq>:<rf>}
-gpgpu_const_cache:l1 N:128:64:8,L:R:f:N:L,S:2:64,4 # per-shader L1 constant memory cache  (READ-ONLY) config  {<nsets>:<bsize>:<assoc>,<rep>:<wr>:<alloc>:<wr_alloc>,<mshr>:<N>:<merge>,<mq>} 
-gpgpu_cache:il1     N:64:128:16,L:R:f:N:L,S:2:48,4 # shader L1 instruction cache config  {<nsets>:<bsize>:<assoc>,<rep>:<wr>:<alloc>:<wr_alloc>,<mshr>:<N>:<merge>,<mq>} 
-gpgpu_cache:dl1     S:1:128:256,L:L:s:N:L,A:256:8,16:0,32 # per-shader L1 data cache config  {<nsets>:<bsize>:<assoc>,<rep>:<wr>:<alloc>:<wr_alloc>,<mshr>:<N>:<merge>,<mq> | none}
-gpgpu_l1_banks                         4 # The number of L1 cache banks
-gpgpu_l1_banks_byte_interleaving                   32 # l1 banks byte interleaving granularity
-gpgpu_l1_banks_hashing_function                    0 # l1 banks hashing function
-gpgpu_l1_latency                      20 # L1 Hit Latency
-gpgpu_smem_latency                    20 # smem Latency
-gpgpu_cache:dl1PrefL1                 none # per-shader L1 data cache config  {<nsets>:<bsize>:<assoc>,<rep>:<wr>:<alloc>:<wr_alloc>,<mshr>:<N>:<merge>,<mq> | none}
-gpgpu_cache:dl1PrefShared                 none # per-shader L1 data cache config  {<nsets>:<bsize>:<assoc>,<rep>:<wr>:<alloc>:<wr_alloc>,<mshr>:<N>:<merge>,<mq> | none}
-gpgpu_gmem_skip_L1D                    0 # global memory access skip L1D cache (implements -Xptxas -dlcm=cg, default=no skip)
-gpgpu_perfect_mem                      0 # enable perfect memory mode (no cache miss)
-n_regfile_gating_group                    4 # group of lanes that should be read/written together)
-gpgpu_clock_gated_reg_file                    0 # enable clock gated reg file for power calculations
-gpgpu_clock_gated_lanes                    0 # enable clock gated lanes for power calculations
-gpgpu_shader_registers                65536 # Number of registers per shader core. Limits number of concurrent CTAs. (default 8192)
-gpgpu_registers_per_block                65536 # Maximum number of registers per CTA. (default 8192)
-gpgpu_ignore_resources_limitation                    0 # gpgpu_ignore_resources_limitation (default 0)
-gpgpu_shader_cta                      32 # Maximum number of concurrent CTAs in shader (default 8)
-gpgpu_num_cta_barriers                   16 # Maximum number of named barriers per CTA (default 16)
-gpgpu_n_clusters                      80 # number of processing clusters
-gpgpu_n_cores_per_cluster                    1 # number of simd cores per cluster
-gpgpu_n_cluster_ejection_buffer_size                   32 # number of packets in ejection buffer
-gpgpu_n_ldst_response_buffer_size                    2 # number of response packets in ld/st unit ejection buffer
-gpgpu_shmem_per_block                65536 # Size of shared memory per thread block or CTA (default 48kB)
-gpgpu_shmem_size                   98304 # Size of shared memory per shader core (default 16kB)
-gpgpu_adaptive_cache_config            536870913 # adaptive_cache_config
-gpgpu_shmem_sizeDefault                98304 # Size of shared memory per shader core (default 16kB)
-gpgpu_shmem_size_PrefL1                16384 # Size of shared memory per shader core (default 16kB)
-gpgpu_shmem_size_PrefShared                16384 # Size of shared memory per shader core (default 16kB)
-gpgpu_shmem_num_banks                   32 # Number of banks in the shared memory in each shader core (default 16)
-gpgpu_shmem_limited_broadcast                    0 # Limit shared memory to do one broadcast per cycle (default on)
-gpgpu_shmem_warp_parts                    1 # Number of portions a warp is divided into for shared memory bank conflict check 
-gpgpu_mem_unit_ports                    1 # The number of memory transactions allowed per core cycle
-gpgpu_shmem_warp_parts                    1 # Number of portions a warp is divided into for shared memory bank conflict check 
-gpgpu_warpdistro_shader                   -1 # Specify which shader core to collect the warp size distribution from
-gpgpu_warp_issue_shader                    0 # Specify which shader core to collect the warp issue distribution from
-gpgpu_local_mem_map                    1 # Mapping from local memory space address to simulated GPU physical address space (default = enabled)
-gpgpu_num_reg_banks                   16 # Number of register banks (default = 8)
-gpgpu_reg_bank_use_warp_id                    0 # Use warp ID in mapping registers to banks (default = off)
-gpgpu_sub_core_model                    1 # Sub Core Volta/Pascal model (default = off)
-gpgpu_enable_specialized_operand_collector                    0 # enable_specialized_operand_collector
-gpgpu_operand_collector_num_units_sp                    4 # number of collector units (default = 4)
-gpgpu_operand_collector_num_units_dp                    0 # number of collector units (default = 0)
-gpgpu_operand_collector_num_units_sfu                    4 # number of collector units (default = 4)
-gpgpu_operand_collector_num_units_int                    0 # number of collector units (default = 0)
-gpgpu_operand_collector_num_units_tensor_core                    4 # number of collector units (default = 4)
-gpgpu_operand_collector_num_units_mem                    2 # number of collector units (default = 2)
-gpgpu_operand_collector_num_units_gen                    8 # number of collector units (default = 0)
-gpgpu_operand_collector_num_in_ports_sp                    1 # number of collector unit in ports (default = 1)
-gpgpu_operand_collector_num_in_ports_dp                    0 # number of collector unit in ports (default = 0)
-gpgpu_operand_collector_num_in_ports_sfu                    1 # number of collector unit in ports (default = 1)
-gpgpu_operand_collector_num_in_ports_int                    0 # number of collector unit in ports (default = 0)
-gpgpu_operand_collector_num_in_ports_tensor_core                    1 # number of collector unit in ports (default = 1)
-gpgpu_operand_collector_num_in_ports_mem                    1 # number of collector unit in ports (default = 1)
-gpgpu_operand_collector_num_in_ports_gen                    8 # number of collector unit in ports (default = 0)
-gpgpu_operand_collector_num_out_ports_sp                    1 # number of collector unit in ports (default = 1)
-gpgpu_operand_collector_num_out_ports_dp                    0 # number of collector unit in ports (default = 0)
-gpgpu_operand_collector_num_out_ports_sfu                    1 # number of collector unit in ports (default = 1)
-gpgpu_operand_collector_num_out_ports_int                    0 # number of collector unit in ports (default = 0)
-gpgpu_operand_collector_num_out_ports_tensor_core                    1 # number of collector unit in ports (default = 1)
-gpgpu_operand_collector_num_out_ports_mem                    1 # number of collector unit in ports (default = 1)
-gpgpu_operand_collector_num_out_ports_gen                    8 # number of collector unit in ports (default = 0)
-gpgpu_coalesce_arch                   60 # Coalescing arch (GT200 = 13, Fermi = 20)
-gpgpu_num_sched_per_core                    4 # Number of warp schedulers per core
-gpgpu_max_insn_issue_per_warp                    1 # Max number of instructions that can be issued per warp in one cycle by scheduler (either 1 or 2)
-gpgpu_dual_issue_diff_exec_units                    1 # should dual issue use two different execution unit resources (Default = 1)
-gpgpu_simt_core_sim_order                    1 # Select the simulation order of cores in a cluster (0=Fix, 1=Round-Robin)
-gpgpu_pipeline_widths 4,4,4,4,4,4,4,4,4,4,8,4,4 # Pipeline widths ID_OC_SP,ID_OC_DP,ID_OC_INT,ID_OC_SFU,ID_OC_MEM,OC_EX_SP,OC_EX_DP,OC_EX_INT,OC_EX_SFU,OC_EX_MEM,EX_WB,ID_OC_TENSOR_CORE,OC_EX_TENSOR_CORE
-gpgpu_tensor_core_avail                    1 # Tensor Core Available (default=0)
-gpgpu_num_sp_units                     4 # Number of SP units (default=1)
-gpgpu_num_dp_units                     4 # Number of DP units (default=0)
-gpgpu_num_int_units                    4 # Number of INT units (default=0)
-gpgpu_num_sfu_units                    4 # Number of SF units (default=1)
-gpgpu_num_tensor_core_units                    4 # Number of tensor_core units (default=1)
-gpgpu_num_mem_units                    1 # Number if ldst units (default=1) WARNING: not hooked up to anything
-gpgpu_scheduler                      gto # Scheduler configuration: < lrr | gto | two_level_active > If two_level_active:<num_active_warps>:<inner_prioritization>:<outer_prioritization>For complete list of prioritization values see shader.h enum scheduler_prioritization_typeDefault: gto
-gpgpu_concurrent_kernel_sm                    0 # Support concurrent kernels on a SM (default = disabled)
-gpgpu_perfect_inst_const_cache                    1 # perfect inst and const cache mode, so all inst and const hits in the cache(default = disabled)
-gpgpu_inst_fetch_throughput                    4 # the number of fetched intruction per warp each cycle
-gpgpu_reg_file_port_throughput                    2 # the number ports of the register file
-specialized_unit_1         0,4,4,4,4,BRA # specialized unit config {<enabled>,<num_units>:<latency>:<initiation>,<ID_OC_SPEC>:<OC_EX_SPEC>,<NAME>}
-specialized_unit_2         0,4,4,4,4,BRA # specialized unit config {<enabled>,<num_units>:<latency>:<initiation>,<ID_OC_SPEC>:<OC_EX_SPEC>,<NAME>}
-specialized_unit_3         0,4,4,4,4,BRA # specialized unit config {<enabled>,<num_units>:<latency>:<initiation>,<ID_OC_SPEC>:<OC_EX_SPEC>,<NAME>}
-specialized_unit_4         0,4,4,4,4,BRA # specialized unit config {<enabled>,<num_units>:<latency>:<initiation>,<ID_OC_SPEC>:<OC_EX_SPEC>,<NAME>}
-specialized_unit_5         0,4,4,4,4,BRA # specialized unit config {<enabled>,<num_units>:<latency>:<initiation>,<ID_OC_SPEC>:<OC_EX_SPEC>,<NAME>}
-specialized_unit_6         0,4,4,4,4,BRA # specialized unit config {<enabled>,<num_units>:<latency>:<initiation>,<ID_OC_SPEC>:<OC_EX_SPEC>,<NAME>}
-specialized_unit_7         0,4,4,4,4,BRA # specialized unit config {<enabled>,<num_units>:<latency>:<initiation>,<ID_OC_SPEC>:<OC_EX_SPEC>,<NAME>}
-specialized_unit_8         0,4,4,4,4,BRA # specialized unit config {<enabled>,<num_units>:<latency>:<initiation>,<ID_OC_SPEC>:<OC_EX_SPEC>,<NAME>}
-gpgpu_perf_sim_memcpy                    1 # Fill the L2 cache on memcpy
-gpgpu_simple_dram_model                    0 # simple_dram_model with fixed latency and BW
-gpgpu_dram_scheduler                    1 # 0 = fifo, 1 = FR-FCFS (defaul)
-gpgpu_dram_partition_queues          64:64:64:64 # i2$:$2d:d2$:$2i
-l2_ideal                               0 # Use a ideal L2 cache that always hit
-gpgpu_cache:dl2     S:32:128:24,L:B:m:L:P,A:192:4,32:0,32 # unified banked L2 data cache config  {<nsets>:<bsize>:<assoc>,<rep>:<wr>:<alloc>:<wr_alloc>,<mshr>:<N>:<merge>,<mq>}
-gpgpu_cache:dl2_texture_only                    0 # L2 cache used for texture only
-gpgpu_n_mem                           32 # number of memory modules (e.g. memory controllers) in gpu
-gpgpu_n_sub_partition_per_mchannel                    2 # number of memory subpartition in each memory module
-gpgpu_n_mem_per_ctrlr                    1 # number of memory chips per memory controller
-gpgpu_memlatency_stat                   14 # track and display latency statistics 0x2 enables MC, 0x4 enables queue logs
-gpgpu_frfcfs_dram_sched_queue_size                   64 # 0 = unlimited (default); # entries per chip
-gpgpu_dram_return_queue_size                  192 # 0 = unlimited (default); # entries per chip
-gpgpu_dram_buswidth                   16 # default = 4 bytes (8 bytes per cycle at DDR)
-gpgpu_dram_burst_length                    2 # Burst length of each DRAM request (default = 4 data bus cycle)
-dram_data_command_freq_ratio                    2 # Frequency ratio between DRAM data bus and command bus (default = 2 times, i.e. DDR)
-gpgpu_dram_timing_opt nbk=16:CCD=1:RRD=3:RCD=12:RAS=28:RP=12:RC=40: CL=12:WL=2:CDLR=3:WR=10:nbkgrp=4:CCDL=2:RTPL=3 # DRAM timing parameters = {nbk:tCCD:tRRD:tRCD:tRAS:tRP:tRC:CL:WL:tCDLR:tWR:nbkgrp:tCCDL:tRTPL}
-gpgpu_l2_rop_latency                  160 # ROP queue latency (default 85)
-dram_latency                         200 # DRAM latency (default 30)
-dram_write_latency                   600 # DRAM write latency (default 100)
-dram_dual_bus_interface                    1 # dual_bus_interface (default = 0) 
-dram_bnk_indexing_policy                    0 # dram_bnk_indexing_policy (0 = normal indexing, 1 = Xoring with the higher bits) (Default = 0)
-dram_bnkgrp_indexing_policy                    1 # dram_bnkgrp_indexing_policy (0 = take higher bits, 1 = take lower bits) (Default = 0)
-dram_seperate_write_queue_enable                    0 # Seperate_Write_Queue_Enable
-dram_write_queue_size             32:28:16 # Write_Queue_Size
-dram_elimnate_rw_turnaround                    0 # elimnate_rw_turnaround i.e set tWTR and tRTW = 0
-icnt_flit_size                        40 # icnt_flit_size
-gpgpu_mem_addr_mapping dramid@8;00000000.00000000.00000000.00000000.0000RRRR.RRRRRRRR.RBBBCCCB.CCCSSSSS # mapping memory address to dram model {dramid@<start bit>;<memory address map>}
-gpgpu_mem_addr_test                    0 # run sweep test to check address mapping for aliased address
-gpgpu_mem_address_mask                    1 # 0 = old addressing mask, 1 = new addressing mask, 2 = new add. mask + flipped bank sel and chip sel bits
-gpgpu_memory_partition_indexing                    0 # 0 = no indexing, 1 = bitwise xoring, 2 = IPoly, 3 = custom indexing
-gpuwattch_xml_file         gpuwattch.xml # GPUWattch XML file
-power_simulation_enabled                    0 # Turn on power simulator (1=On, 0=Off)
-power_per_cycle_dump                    0 # Dump detailed power output each cycle
-power_trace_enabled                    0 # produce a file for the power trace (1=On, 0=Off)
-power_trace_zlevel                     6 # Compression level of the power trace output log (0=no comp, 9=highest)
-steady_power_levels_enabled                    0 # produce a file for the steady power levels (1=On, 0=Off)
-steady_state_definition                  8:4 # allowed deviation:number of samples
-gpgpu_max_cycle                        0 # terminates gpu simulation early (0 = no limit)
-gpgpu_max_insn                         0 # terminates gpu simulation early (0 = no limit)
-gpgpu_max_cta                          0 # terminates gpu simulation early (0 = no limit)
-gpgpu_max_completed_cta                    0 # terminates gpu simulation early (0 = no limit)
-gpgpu_runtime_stat                   500 # display runtime statistics such as dram utilization {<freq>:<flag>}
-liveness_message_freq                    1 # Minimum number of seconds between simulation liveness messages (0 = always print)
-gpgpu_compute_capability_major                    7 # Major compute capability version number
-gpgpu_compute_capability_minor                    0 # Minor compute capability version number
-gpgpu_flush_l1_cache                    1 # Flush L1 cache at the end of each kernel call
-gpgpu_flush_l2_cache                    0 # Flush L2 cache at the end of each kernel call
-gpgpu_deadlock_detect                    1 # Stop the simulation at deadlock (1=on (default), 0=off)
-gpgpu_ptx_instruction_classification                    0 # if enabled will classify ptx instruction types per kernel (Max 255 kernels now)
-gpgpu_ptx_sim_mode                     0 # Select between Performance (default) or Functional simulation (1)
-gpgpu_clock_domains 1132.0:1132.0:1132.0:850.0 # Clock Domain Frequencies in MhZ {<Core Clock>:<ICNT Clock>:<L2 Clock>:<DRAM Clock>}
-gpgpu_max_concurrent_kernel                    8 # maximum kernels that can run concurrently on GPU
-gpgpu_cflog_interval                    0 # Interval between each snapshot in control flow logger
-visualizer_enabled               3acf4816f28a61137a29f806736c3982  /home/pli11/Videos/parboil_benchmark/parboil/benchmarks/sad/build/nvm_default/sad
Extracting PTX file and ptxas options    1: sad.1.sm_70.ptx -arch=sm_70
Extracting PTX file and ptxas options    2: sad.2.sm_70.ptx -arch=sm_70
Extracting PTX file and ptxas options    3: sad.3.sm_70.ptx -arch=sm_70
      0 # Turn on visualizer output (1=On, 0=Off)
-visualizer_outputfile                 NULL # Specifies the output log file for visualizer
-visualizer_zlevel                      6 # Compression level of the visualizer output log (0=no comp, 9=highest)
-gpgpu_stack_size_limit                 1024 # GPU thread stack size
-gpgpu_heap_size_limit              8388608 # GPU malloc heap size 
-gpgpu_runtime_sync_depth_limit                    2 # GPU device runtime synchronize depth
-gpgpu_runtime_pending_launch_count_limit                 2048 # GPU device runtime pending launch count
-trace_enabled                          0 # Turn on traces
-trace_components                    none # comma seperated list of traces to enable. Complete list found in trace_streams.tup. Default none
-trace_sampling_core                    0 # The core which is printed using CORE_DPRINTF. Default 0
-trace_sampling_memory_partition                   -1 # The memory partition which is printed using MEMPART_DPRINTF. Default -1 (i.e. all)
-enable_ptx_file_line_stats                    1 # Turn on PTX source line statistic profiling. (1 = On)
-ptx_line_stats_filename gpgpu_inst_stats.txt # Output file for PTX source line statistics.
-gpgpu_kernel_launch_latency                 5000 # Kernel launch latency in cycles. Default: 0
-gpgpu_cdp_enabled                      0 # Turn on CDP
-gpgpu_TB_launch_latency                    0 # thread block launch latency in cycles. Default: 0
DRAM Timing Options:
nbk                                    16 # number of banks
CCD                                     1 # column to column delay
RRD                                     3 # minimal delay between activation of rows in different banks
RCD                                    12 # row to column delay
RAS                                    28 # time needed to activate row
RP                                     12 # time needed to precharge (deactivate) row
RC                                     40 # row cycle time
CDLR                                    3 # switching from write to read (changes tWTR)
WR                                     10 # last data-in to row precharge
CL                                     12 # CAS latency
WL                                      2 # Write latency
nbkgrp                                  4 # number of bank groups
CCDL                                    2 # column to column delay between accesses to different bank groups
RTPL                                    3 # read to precharge delay between accesses to different bank groups
Total number of memory sub partition = 64
addr_dec_mask[CHIP]  = 0000000000001f00 	high:13 low:8
addr_dec_mask[BK]    = 00000000000e2000 	high:20 low:13
addr_dec_mask[ROW]   = 00000001fff00000 	high:33 low:20
addr_dec_mask[COL]   = 000000000001c0ff 	high:17 low:0
addr_dec_mask[BURST] = 000000000000001f 	high:5 low:0
sub_partition_id_mask = 0000000000002000
GPGPU-Sim uArch: clock freqs: 1132000000.000000:1132000000.000000:1132000000.000000:850000000.000000
GPGPU-Sim uArch: clock periods: 0.00000000088339222615:0.00000000088339222615:0.00000000088339222615:0.00000000117647058824
*** Initializing Memory Statistics ***
GPGPU-Sim uArch: performance model initialization complete.
self exe links to: /home/pli11/Videos/parboil_benchmark/parboil/benchmarks/sad/build/nvm_default/sad
self exe links to: /home/pli11/Videos/parboil_benchmark/parboil/benchmarks/sad/build/nvm_default/sad
10.1
GPGPU-Sim PTX: __cudaRegisterFatBinary, fat_cubin_handle = 1, filename=default
self exe links to: /home/pli11/Videos/parboil_benchmark/parboil/benchmarks/sad/build/nvm_default/sad
Running md5sum using "md5sum /home/pli11/Videos/parboil_benchmark/parboil/benchmarks/sad/build/nvm_default/sad "
self exe links to: /home/pli11/Videos/parboil_benchmark/parboil/benchmarks/sad/build/nvm_default/sad
Extracting specific PTX file named sad.1.sm_70.ptx 
Extracting specific PTX file named sad.2.sm_70.ptx 
Extracting specific PTX file named sad.3.sm_70.ptx 
GPGPU-Sim PTX: __cudaRegisterFunction _Z16mb_sad_calc_nvmdPtS_ii : hostFun 0x0x403136, fat_cubin_handle = 1
GPGPU-Sim PTX: Parsing sad.1.sm_70.ptx
GPGPU-Sim PTX: allocating global region for "ref" from 0x100 to 0x104 (global memory space)
GPGPU-Sim PTX: allocating global region for "NVM_log" from 0x180 to 0x2000180 (global memory space)
GPGPU-Sim PTX: allocating global region for "NVM_flag" from 0x2000180 to 0x2400180 (global memory space)
GPGPU-Sim PTX: instruction assembly for function '_Z16mb_sad_calc_nvmoPtS_ii'...   done.
GPGPU-Sim PTX: instruction assembly for function '_Z16mb_sad_calc_nvmuPtS_ii'...   done.
GPGPU-Sim PTX: instruction assembly for function '_Z16mb_sad_calc_nvmqPtS_ii'...   done.
GPGPU-Sim PTX: instruction assembly for function '_Z16mb_sad_calc_nvmwPtS_ii'...   done.
GPGPU-Sim PTX: instruction assembly for function '_Z16mb_sad_calc_nvm1PtS_ii'...   done.
GPGPU-Sim PTX: instruction assembly for function '_Z16mb_sad_calc_nvm2PtS_ii'...   done.
GPGPU-Sim PTX: instruction assembly for function '_Z16mb_sad_calc_nvmjPtS_ii'...   done.
GPGPU-Sim PTX: instruction assembly for function '_Z16mb_sad_calc_nvmlPtS_ii'...   done.
GPGPU-Sim PTX: instruction assembly for function '_Z16mb_sad_calc_nvmgPtS_ii'...   done.
GPGPU-Sim PTX: instruction assembly for function '_Z16mb_sad_calc_nvm3PtS_ii'...   done.
GPGPU-Sim PTX: instruction assembly for function '_Z16mb_sad_calc_nvm4PtS_ii'...   done.
GPGPU-Sim PTX: instruction assembly for function '_Z16mb_sad_calc_nvmiPtS_ii'...   done.
GPGPU-Sim PTX: instruction assembly for function '_Z16mb_sad_calc_nvm6PtS_ii'...   done.
GPGPU-Sim PTX: instruction assembly for function '_Z16mb_sad_calc_nvm5PtS_ii'...   done.
GPGPU-Sim PTX: instruction assembly for function '_Z11mb_sad_calcPtS_ii'...   done.
GPGPU-Sim PTX: instruction assembly for function '_Z16mb_sad_calc_nvmbPtS_ii'...   done.
GPGPU-Sim PTX: instruction assembly for function '_Z16mb_sad_calc_nvmdPtS_ii'...   done.
GPGPU-Sim PTX: finished parsing EMBEDDED .ptx file sad.1.sm_70.ptx
GPGPU-Sim PTX: Parsing sad.2.sm_70.ptx
GPGPU-Sim PTX: instruction assembly for function '_Z17larger_sad_calc_8Ptii'...   done.
GPGPU-Sim PTX: instruction assembly for function '_Z22larger_sad_calc_8_nvmoPtii'...   done.
GPGPU-Sim PTX: instruction assembly for function '_Z22larger_sad_calc_8_nvmuPtii'...   done.
GPGPU-Sim PTX: instruction assembly for function '_Z22larger_sad_calc_8_nvmbPtii'...   done.
GPGPU-Sim PTX: instruction assembly for function '_Z18larger_sad_calc_16Ptii'...   done.
GPGPU-Sim PTX: finished parsing EMBEDDED .ptx file sad.2.sm_70.ptx
GPGPU-Sim PTX: Parsing sad.3.sm_70.ptx
GPGPU-Sim PTX: instruction assembly for function '_Z11kernel_l2wbv'...   done.
GPGPU-Sim PTX: instruction assembly for function '_Z15kernel_l2wb_pctv'...   done.
GPGPU-Sim PTX: finished parsing EMBEDDED .ptx file sad.3.sm_70.ptx
GPGPU-Sim PTX: loading globals with explicit initializers... 
GPGPU-Sim PTX: finished loading globals (0 bytes total).
GPGPU-Sim PTX: loading constants with explicit initializers...  done.
GPGPU-Sim PTX: Loading PTXInfo from sad.1.sm_70.ptx
GPGPU-Sim PTX: Kernel '_Z16mb_sad_calc_nvmdPtS_ii' : regs=48, lmem=0, smem=0, cmem=380
GPGPU-Sim PTX: Kernel '_Z16mb_sad_calc_nvmbPtS_ii' : regs=48, lmem=0, smem=0, cmem=380
GPGPU-Sim PTX: Kernel '_Z11mb_sad_calcPtS_ii' : regs=48, lmem=0, smem=0, cmem=380
GPGPU-Sim PTX: Kernel '_Z16mb_sad_calc_nvm5PtS_ii' : regs=64, lmem=0, smem=0, cmem=380
GPGPU-Sim PTX: Kernel '_Z16mb_sad_calc_nvm6PtS_ii' : regs=64, lmem=0, smem=0, cmem=380
GPGPU-Sim PTX: Kernel '_Z16mb_sad_calc_nvmiPtS_ii' : regs=56, lmem=0, smem=0, cmem=380
GPGPU-Sim PTX: Kernel '_Z16mb_sad_calc_nvm4PtS_ii' : regs=56, lmem=0, smem=0, cmem=380
GPGPU-Sim PTX: Kernel '_Z16mb_sad_calc_nvm3PtS_ii' : regs=56, lmem=0, smem=0, cmem=380
GPGPU-Sim PTX: Kernel '_Z16mb_sad_calc_nvmgPtS_ii' : regs=56, lmem=0, smem=0, cmem=380
GPGPU-Sim PTX: Kernel '_Z16mb_sad_calc_nvmlPtS_ii' : regs=48, lmem=0, smem=0, cmem=380
GPGPU-Sim PTX: Kernel '_Z16mb_sad_calc_nvmjPtS_ii' : regs=48, lmem=0, smem=0, cmem=380
GPGPU-Sim PTX: Kernel '_Z16mb_sad_calc_nvm2PtS_ii' : regs=48, lmem=0, smem=0, cmem=380
GPGPU-Sim PTX: Kernel '_Z16mb_sad_calc_nvm1PtS_ii' : regs=48, lmem=0, smem=0, cmem=380
GPGPU-Sim PTX: Kernel '_Z16mb_sad_calc_nvmwPtS_ii' : regs=56, lmem=0, smem=0, cmem=380
GPGPU-Sim PTX: Kernel '_Z16mb_sad_calc_nvmqPtS_ii' : regs=56, lmem=0, smem=0, cmem=380
GPGPU-Sim PTX: Kernel '_Z16mb_sad_calc_nvmuPtS_ii' : regs=56, lmem=0, smem=0, cmem=380
GPGPU-Sim PTX: Kernel '_Z16mb_sad_calc_nvmoPtS_ii' : regs=56, lmem=0, smem=0, cmem=380
GPGPU-Sim PTX: Loading PTXInfo from sad.2.sm_70.ptx
GPGPU-Sim PTX: Kernel '_Z18larger_sad_calc_16Ptii' : regs=32, lmem=0, smem=0, cmem=368
GPGPU-Sim PTX: Kernel '_Z22larger_sad_calc_8_nvmbPtii' : regs=32, lmem=0, smem=0, cmem=368
GPGPU-Sim PTX: Kernel '_Z22larger_sad_calc_8_nvmuPtii' : regs=32, lmem=0, smem=0, cmem=368
GPGPU-Sim PTX: Kernel '_Z22larger_sad_calc_8_nvmoPtii' : regs=32, lmem=0, smem=0, cmem=368
GPGPU-Sim PTX: Kernel '_Z17larger_sad_calc_8Ptii' : regs=32, lmem=0, smem=0, cmem=368
GPGPU-Sim PTX: Loading PTXInfo from sad.3.sm_70.ptx
GPGPU-Sim PTX: Kernel '_Z15kernel_l2wb_pctv' : regs=8, lmem=0, smem=0, cmem=352
GPGPU-Sim PTX: Kernel '_Z11kernel_l2wbv' : regs=8, lmem=0, smem=0, cmem=352
GPGPU-Sim PTX: __cudaRegisterFunction _Z16mb_sad_calc_nvmbPtS_ii : hostFun 0x0x402fc3, fat_cubin_handle = 1
GPGPU-Sim PTX: __cudaRegisterFunction _Z11mb_sad_calcPtS_ii : hostFun 0x0x402e50, fat_cubin_handle = 1
GPGPU-Sim PTX: __cudaRegisterFunction _Z16mb_sad_calc_nvm5PtS_ii : hostFun 0x0x402cdd, fat_cubin_handle = 1
GPGPU-Sim PTX: __cudaRegisterFunction _Z16mb_sad_calc_nvm6PtS_ii : hostFun 0x0x402b6a, fat_cubin_handle = 1
GPGPU-Sim PTX: __cudaRegisterFunction _Z16mb_sad_calc_nvmiPtS_ii : hostFun 0x0x4029f7, fat_cubin_handle = 1
GPGPU-Sim PTX: __cudaRegisterFunction _Z16mb_sad_calc_nvm4PtS_ii : hostFun 0x0x402884, fat_cubin_handle = 1
GPGPU-Sim PTX: __cudaRegisterFunction _Z16mb_sad_calc_nvm3PtS_ii : hostFun 0x0x402711, fat_cubin_handle = 1
GPGPU-Sim PTX: __cudaRegisterFunction _Z16mb_sad_calc_nvmgPtS_ii : hostFun 0x0x40259e, fat_cubin_handle = 1
GPGPU-Sim PTX: __cudaRegisterFunction _Z16mb_sad_calc_nvmlPtS_ii : hostFun 0x0x40242b, fat_cubin_handle = 1
GPGPU-Sim PTX: __cudaRegisterFunction _Z16mb_sad_calc_nvmjPtS_ii : hostFun 0x0x4022b8, fat_cubin_handle = 1
GPGPU-Sim PTX: __cudaRegisterFunction _Z16mb_sad_calc_nvm2PtS_ii : hostFun 0x0x402145, fat_cubin_handle = 1
GPGPU-Sim PTX: __cudaRegisterFunction _Z16mb_sad_calc_nvm1PtS_ii : hostFun 0x0x401fd2, fat_cubin_handle = 1
GPGPU-Sim PTX: __cudaRegisterFunction _Z16mb_sad_calc_nvmwPtS_ii : hostFun 0x0x401e5f, fat_cubin_handle = 1
GPGPU-Sim PTX: __cudaRegisterFunction _Z16mb_sad_calc_nvmqPtS_ii : hostFun 0x0x401cec, fat_cubin_handle = 1
GPGPU-Sim PTX: __cudaRegisterFunction _Z16mb_sad_calc_nvmuPtS_ii : hostFun 0x0x401b79, fat_cubin_handle = 1
GPGPU-Sim PTX: __cudaRegisterFunction _Z16mb_sad_calc_nvmoPtS_ii : hostFun 0x0x401a06, fat_cubin_handle = 1
GPGPU-Sim PTX: in __cudaRegisterTexture:
GPGPU-Sim PTX:   int dim = 2
GPGPU-Sim PTX:   int norm = 0
GPGPU-Sim PTX:   int ext = 0
GPGPU-Sim PTX:   Execution warning: Not finished implementing "void __cudaRegisterTextureInternal(void**, const textureReference*, const void**, const char*, int, int, int, gpgpu_context*)"
GPGPU-Sim PTX: __cudaRegisterVar: hostVar = 0x6132a0; deviceAddress = NVM_log; deviceName = NVM_log
GPGPU-Sim PTX: __cudaRegisterVar: Registering const memory space of 33554432 bytes
GPGPU-Sim PTX registering global NVM_log hostVar to name mapping
GPGPU-Sim PTX: __cudaRegisterVar: hostVar = 0x26132a0; deviceAddress = NVM_flag; deviceName = NVM_flag
GPGPU-Sim PTX: __cudaRegisterVar: Registering const memory space of 4194304 bytes
GPGPU-Sim PTX registering global NVM_flag hostVar to name mapping
self exe links to: /home/pli11/Videos/parboil_benchmark/parboil/benchmarks/sad/build/nvm_default/sad
self exe links to: /home/pli11/Videos/parboil_benchmark/parboil/benchmarks/sad/build/nvm_default/sad
10.1
GPGPU-Sim PTX: __cudaRegisterFatBinary, fat_cubin_handle = 2, filename=default
GPGPU-Sim PTX: __cudaRegisterFunction _Z18larger_sad_calc_16Ptii : hostFun 0x0x403ff1, fat_cubin_handle = 2
GPGPU-Sim PTX: __cudaRegisterFunction _Z22larger_sad_calc_8_nvmbPtii : hostFun 0x0x403e9a, fat_cubin_handle = 2
GPGPU-Sim PTX: __cudaRegisterFunction _Z22larger_sad_calc_8_nvmuPtii : hostFun 0x0x403d43, fat_cubin_handle = 2
GPGPU-Sim PTX: __cudaRegisterFunction _Z22larger_sad_calc_8_nvmoPtii : hostFun 0x0x403bec, fat_cubin_handle = 2
GPGPU-Sim PTX: __cudaRegisterFunction _Z17larger_sad_calc_8Ptii : hostFun 0x0x403a95, fat_cubin_handle = 2
self exe links to: /home/pli11/Videos/parboil_benchmark/parboil/benchmarks/sad/build/nvm_default/sad
self exe links to: /home/pli11/Videos/parboil_benchmark/parboil/benchmarks/sad/build/nvm_default/sad
10.1
GPGPU-Sim PTX: __cudaRegisterFatBinary, fat_cubin_handle = 3, filename=default
GPGPU-Sim PTX: __cudaRegisterFunction _Z15kernel_l2wb_pctv : hostFun 0x0x40676c, fat_cubin_handle = 3
GPGPU-Sim PTX: __cudaRegisterFunction _Z11kernel_l2wbv : hostFun 0x0x406672, fat_cubin_handle = 3
GPGPU-Sim PTX: cudaMallocArray: devPtr32 = -1073691136
GPGPU-Sim PTX: in cudaBindTextureToArray: 0x613220 0x127a15c0
GPGPU-Sim PTX:   devPtr32 = c000c600
GPGPU-Sim PTX:   Name corresponding to textureReference: ref
GPGPU-Sim PTX:   Texture Normalized? = 0
GPGPU-Sim PTX:   texel size = 2
GPGPU-Sim PTX:   texture cache linesize = 128
GPGPU-Sim PTX:   Tx = 16; Ty = 4, Tx_numbits = 4, Ty_numbits = 2
GPGPU-Sim PTX:   Texel size = 2 bytes; texel_size_numbits = 1
GPGPU-Sim PTX:   Binding texture to array starting at devPtr32 = 0xc000c600
GPGPU-Sim PTX:   Texel size = 2 bytes
event update
width * height = 99
GPGPU-Sim: synchronize waiting for inactive GPU simulation
GPGPU-Sim API: Stream Manager State
GPGPU-Sim: detected inactive GPU simulation thread
GPGPU-Sim PTX: Setting up arguments for 8 bytes starting at 0x7ffd96ebde48..
GPGPU-Sim PTX: Setting up arguments for 8 bytes starting at 0x7ffd96ebde40..
GPGPU-Sim PTX: Setting up arguments for 4 bytes starting at 0x7ffd96ebde3c..
GPGPU-Sim PTX: Setting up arguments for 4 bytes starting at 0x7ffd96ebde38..

GPGPU-Sim PTX: cudaLaunch for 0x0x402711 (mode=performance simulation) on stream 0
GPGPU-Sim PTX: finding reconvergence points for '_Z16mb_sad_calc_nvm3PtS_ii'...
GPGPU-Sim PTX: Finding dominators for '_Z16mb_sad_calc_nvm3PtS_ii'...
GPGPU-Sim PTX: Finding immediate dominators for '_Z16mb_sad_calc_nvm3PtS_ii'...
GPGPU-Sim PTX: Finding postdominators for '_Z16mb_sad_calc_nvm3PtS_ii'...
GPGPU-Sim PTX: Finding immediate postdominators for '_Z16mb_sad_calc_nvm3PtS_ii'...
GPGPU-Sim PTX: pre-decoding instructions for '_Z16mb_sad_calc_nvm3PtS_ii'...
GPGPU-Sim PTX: reconvergence points for _Z16mb_sad_calc_nvm3PtS_ii...
GPGPU-Sim PTX:  1 (potential) branch divergence @  PC=0x3e28 (sad.1.sm_70.ptx:2401) @%p3 bra BB9_37;
GPGPU-Sim PTX:    immediate post dominator      @  PC=0x4a38 (sad.1.sm_70.ptx:2879) mov.u32 %r283, %ntid.x;
GPGPU-Sim PTX:  2 (potential) branch divergence @  PC=0x3eb8 (sad.1.sm_70.ptx:2420) @%p4 bra BB9_11;
GPGPU-Sim PTX:    immediate post dominator      @  PC=0x40f8 (sad.1.sm_70.ptx:2507) @%p4 bra BB9_21;
GPGPU-Sim PTX:  3 (potential) branch divergence @  PC=0x3f10 (sad.1.sm_70.ptx:2432) @%p6 bra BB9_8;
GPGPU-Sim PTX:    immediate post dominator      @  PC=0x4038 (sad.1.sm_70.ptx:2478) setp.lt.u32%p9, %r15, 4;
GPGPU-Sim PTX:  4 (potential) branch divergence @  PC=0x3f28 (sad.1.sm_70.ptx:2436) @%p7 bra BB9_7;
GPGPU-Sim PTX:    immediate post dominator      @  PC=0x3fe8 (sad.1.sm_70.ptx:2466) cvt.s64.s32%rd45, %r297;
GPGPU-Sim PTX:  5 (potential) branch divergence @  PC=0x3f40 (sad.1.sm_70.ptx:2440) @%p8 bra BB9_6;
GPGPU-Sim PTX:    immediate post dominator      @  PC=0x3f98 (sad.1.sm_70.ptx:2454) cvt.s64.s32%rd38, %r296;
GPGPU-Sim PTX:  6 (potential) branch divergence @  PC=0x4040 (sad.1.sm_70.ptx:2479) @%p9 bra BB9_11;
GPGPU-Sim PTX:    immediate post dominator      @  PC=0x40f8 (sad.1.sm_70.ptx:2507) @%p4 bra BB9_21;
GPGPU-Sim PTX:  7 (potential) branch divergence @  PC=0x40f0 (sad.1.sm_70.ptx:2504) @%p10 bra BB9_10;
GPGPU-Sim PTX:    immediate post dominator      @  PC=0x40f8 (sad.1.sm_70.ptx:2507) @%p4 bra BB9_21;
GPGPU-Sim PTX:  8 (potential) branch divergence @  PC=0x40f8 (sad.1.sm_70.ptx:2507) @%p4 bra BB9_21;
GPGPU-Sim PTX:    immediate post dominator      @  PC=0x42c0 (sad.1.sm_70.ptx:2594) membar.gl;
GPGPU-Sim PTX:  9 (potential) branch divergence @  PC=0x4150 (sad.1.sm_70.ptx:2519) @%p13 bra BB9_18;
GPGPU-Sim PTX:    immediate post dominator      @  PC=0x4230 (sad.1.sm_70.ptx:2562) setp.lt.u32%p16, %r25, 4;
GPGPU-Sim PTX: 10 (potential) branch divergence @  PC=0x4168 (sad.1.sm_70.ptx:2523) @%p14 bra BB9_17;
GPGPU-Sim PTX:    immediate post dominator      @  PC=0x41f8 (sad.1.sm_70.ptx:2551) mul.wide.s32 %rd67, %r301, 2;
GPGPU-Sim PTX: 11 (potential) branch divergence @  PC=0x4180 (sad.1.sm_70.ptx:2527) @%p15 bra BB9_16;
GPGPU-Sim PTX:    immediate post dominator      @  PC=0x41c0 (sad.1.sm_70.ptx:2540) mul.wide.s32 %rd63, %r300, 2;
GPGPU-Sim PTX: 12 (potential) branch divergence @  PC=0x4238 (sad.1.sm_70.ptx:2563) @%p16 bra BB9_21;
GPGPU-Sim PTX:    immediate post dominator      @  PC=0x42c0 (sad.1.sm_70.ptx:2594) membar.gl;
GPGPU-Sim PTX: 13 (potential) branch divergence @  PC=0x42b8 (sad.1.sm_70.ptx:2590) @%p17 bra BB9_20;
GPGPU-Sim PTX:    immediate post dominator      @  PC=0x42c0 (sad.1.sm_70.ptx:2594) membar.gl;
GPGPU-Sim PTX: 14 (potential) branch divergence @  PC=0x4318 (sad.1.sm_70.ptx:2606) @%p18 bra BB9_23;
GPGPU-Sim PTX:    immediate post dominator      @  PC=0x4390 (sad.1.sm_70.ptx:2630) @%p4 bra BB9_37;
GPGPU-Sim PTX: 15 (potential) branch divergence @  PC=0x4390 (sad.1.sm_70.ptx:2630) @%p4 bra BB9_37;
GPGPU-Sim PTX:    immediate post dominator      @  PC=0x4a38 (sad.1.sm_70.ptx:2879) mov.u32 %r283, %ntid.x;
GPGPU-Sim PTX: 16 (potential) branch divergence @  PC=0x4870 (sad.1.sm_70.ptx:2789) @%p20 bra BB9_25;
GPGPU-Sim PTX:    immediate post dominator      @  PC=0x4878 (sad.1.sm_70.ptx:2791) @%p4 bra BB9_37;
GPGPU-Sim PTX: 17 (potential) branch divergence @  PC=0x4878 (sad.1.sm_70.ptx:2791) @%p4 bra BB9_37;
GPGPU-Sim PTX:    immediate post dominator      @  PC=0x4a38 (sad.1.sm_70.ptx:2879) mov.u32 %r283, %ntid.x;
GPGPU-Sim PTX: 18 (potential) branch divergence @  PC=0x48c8 (sad.1.sm_70.ptx:2802) @%p23 bra BB9_34;
GPGPU-Sim PTX:    immediate post dominator      @  PC=0x49a8 (sad.1.sm_70.ptx:2848) setp.lt.u32%p26, %r39, 4;
GPGPU-Sim PTX: 19 (potential) branch divergence @  PC=0x48d8 (sad.1.sm_70.ptx:2805) @%p24 bra BB9_33;
GPGPU-Sim PTX:    immediate post dominator      @  PC=0x4970 (sad.1.sm_70.ptx:2837) cvt.s64.s32%rd101, %r308;
GPGPU-Sim PTX: 20 (potential) branch divergence @  PC=0x48e8 (sad.1.sm_70.ptx:2808) @%p25 bra BB9_30;
GPGPU-Sim PTX:    immediate post dominator      @  PC=0x4938 (sad.1.sm_70.ptx:2826) cvt.s64.s32%rd97, %r38;
GPGPU-Sim PTX: 21 (potential) branch divergence @  PC=0x48f0 (sad.1.sm_70.ptx:2809) bra.uni BB9_31;
GPGPU-Sim PTX:    immediate post dominator      @  PC=0x4908 (sad.1.sm_70.ptx:2816) cvt.u64.u32%rd93, %r308;
GPGPU-Sim PTX: 22 (potential) branch divergence @  PC=0x4900 (sad.1.sm_70.ptx:2813) bra.uni BB9_32;
GPGPU-Sim PTX:    immediate post dominator      @  PC=0x4938 (sad.1.sm_70.ptx:2826) cvt.s64.s32%rd97, %r38;
GPGPU-Sim PTX: 23 (potential) branch divergence @  PC=0x49b0 (sad.1.sm_70.ptx:2849) @%p26 bra BB9_37;
GPGPU-Sim PTX:    immediate post dominator      @  PC=0x4a38 (sad.1.sm_70.ptx:2879) mov.u32 %r283, %ntid.x;
GPGPU-Sim PTX: 24 (potential) branch divergence @  PC=0x4a30 (sad.1.sm_70.ptx:2876) @%p27 bra BB9_36;
GPGPU-Sim PTX:    immediate post dominator      @  PC=0x4a38 (sad.1.sm_70.ptx:2879) mov.u32 %r283, %ntid.x;
GPGPU-Sim PTX: 25 (potential) branch divergence @  PC=0x4a90 (sad.1.sm_70.ptx:2892) @%p28 bra BB9_39;
GPGPU-Sim PTX:    immediate post dominator      @  PC=0x4b08 (sad.1.sm_70.ptx:2916) ret;
GPGPU-Sim PTX: ... end of reconvergence points for _Z16mb_sad_calc_nvm3PtS_ii
GPGPU-Sim PTX: ... done pre-decoding instructions for '_Z16mb_sad_calc_nvm3PtS_ii'.
GPGPU-Sim PTX: pushing kernel '_Z16mb_sad_calc_nvm3PtS_ii' to stream 0, gridDim= (44,36,1) blockDim = (61,1,1) 
GPGPU-Sim uArch: Shader 0 bind to kernel 1 '_Z16mb_sad_calc_nvm3PtS_ii'
GPGPU-Sim uArch: CTA/core = 18, limited by: regs
GPGPU-Sim: Reconfigure L1 cache to 128KB
GPGPU-Sim uArch: Shader 1 bind to kernel 1 '_Z16mb_sad_calc_nvm3PtS_ii'
GPGPU-Sim uArch: Shader 2 bind to kernel 1 '_Z16mb_sad_calc_nvm3PtS_ii'
GPGPU-Sim uArch: Shader 3 bind to kernel 1 '_Z16mb_sad_calc_nvm3PtS_ii'
GPGPU-Sim uArch: Shader 4 bind to kernel 1 '_Z16mb_sad_calc_nvm3PtS_ii'
GPGPU-Sim uArch: Shader 5 bind to kernel 1 '_Z16mb_sad_calc_nvm3PtS_ii'
GPGPU-Sim uArch: Shader 6 bind to kernel 1 '_Z16mb_sad_calc_nvm3PtS_ii'
GPGPU-Sim uArch: Shader 7 bind to kernel 1 '_Z16mb_sad_calc_nvm3PtS_ii'
GPGPU-Sim uArch: Shader 8 bind to kernel 1 '_Z16mb_sad_calc_nvm3PtS_ii'
GPGPU-Sim uArch: Shader 9 bind to kernel 1 '_Z16mb_sad_calc_nvm3PtS_ii'
GPGPU-Sim uArch: Shader 10 bind to kernel 1 '_Z16mb_sad_calc_nvm3PtS_ii'
GPGPU-Sim uArch: Shader 11 bind to kernel 1 '_Z16mb_sad_calc_nvm3PtS_ii'
GPGPU-Sim uArch: Shader 12 bind to kernel 1 '_Z16mb_sad_calc_nvm3PtS_ii'
GPGPU-Sim uArch: Shader 13 bind to kernel 1 '_Z16mb_sad_calc_nvm3PtS_ii'
GPGPU-Sim uArch: Shader 14 bind to kernel 1 '_Z16mb_sad_calc_nvm3PtS_ii'
GPGPU-Sim uArch: Shader 15 bind to kernel 1 '_Z16mb_sad_calc_nvm3PtS_ii'
GPGPU-Sim uArch: Shader 16 bind to kernel 1 '_Z16mb_sad_calc_nvm3PtS_ii'
GPGPU-Sim uArch: Shader 17 bind to kernel 1 '_Z16mb_sad_calc_nvm3PtS_ii'
GPGPU-Sim uArch: Shader 18 bind to kernel 1 '_Z16mb_sad_calc_nvm3PtS_ii'
GPGPU-Sim uArch: Shader 19 bind to kernel 1 '_Z16mb_sad_calc_nvm3PtS_ii'
GPGPU-Sim uArch: Shader 20 bind to kernel 1 '_Z16mb_sad_calc_nvm3PtS_ii'
GPGPU-Sim uArch: Shader 21 bind to kernel 1 '_Z16mb_sad_calc_nvm3PtS_ii'
GPGPU-Sim uArch: Shader 22 bind to kernel 1 '_Z16mb_sad_calc_nvm3PtS_ii'
GPGPU-Sim uArch: Shader 23 bind to kernel 1 '_Z16mb_sad_calc_nvm3PtS_ii'
GPGPU-Sim uArch: Shader 24 bind to kernel 1 '_Z16mb_sad_calc_nvm3PtS_ii'
GPGPU-Sim uArch: Shader 25 bind to kernel 1 '_Z16mb_sad_calc_nvm3PtS_ii'
GPGPU-Sim uArch: Shader 26 bind to kernel 1 '_Z16mb_sad_calc_nvm3PtS_ii'
GPGPU-Sim uArch: Shader 27 bind to kernel 1 '_Z16mb_sad_calc_nvm3PtS_ii'
GPGPU-Sim uArch: Shader 28 bind to kernel 1 '_Z16mb_sad_calc_nvm3PtS_ii'
GPGPU-Sim uArch: Shader 29 bind to kernel 1 '_Z16mb_sad_calc_nvm3PtS_ii'
GPGPU-Sim uArch: Shader 30 bind to kernel 1 '_Z16mb_sad_calc_nvm3PtS_ii'
GPGPU-Sim uArch: Shader 31 bind to kernel 1 '_Z16mb_sad_calc_nvm3PtS_ii'
GPGPU-Sim uArch: Shader 32 bind to kernel 1 '_Z16mb_sad_calc_nvm3PtS_ii'
GPGPU-Sim uArch: Shader 33 bind to kernel 1 '_Z16mb_sad_calc_nvm3PtS_ii'
GPGPU-Sim uArch: Shader 34 bind to kernel 1 '_Z16mb_sad_calc_nvm3PtS_ii'
GPGPU-Sim uArch: Shader 35 bind to kernel 1 '_Z16mb_sad_calc_nvm3PtS_ii'
GPGPU-Sim uArch: Shader 36 bind to kernel 1 '_Z16mb_sad_calc_nvm3PtS_ii'
GPGPU-Sim uArch: Shader 37 bind to kernel 1 '_Z16mb_sad_calc_nvm3PtS_ii'
GPGPU-Sim uArch: Shader 38 bind to kernel 1 '_Z16mb_sad_calc_nvm3PtS_ii'
GPGPU-Sim uArch: Shader 39 bind to kernel 1 '_Z16mb_sad_calc_nvm3PtS_ii'
GPGPU-Sim uArch: Shader 40 bind to kernel 1 '_Z16mb_sad_calc_nvm3PtS_ii'
GPGPU-Sim uArch: Shader 41 bind to kernel 1 '_Z16mb_sad_calc_nvm3PtS_ii'
GPGPU-Sim uArch: Shader 42 bind to kernel 1 '_Z16mb_sad_calc_nvm3PtS_ii'
GPGPU-Sim uArch: Shader 43 bind to kernel 1 '_Z16mb_sad_calc_nvm3PtS_ii'
GPGPU-Sim uArch: Shader 44 bind to kernel 1 '_Z16mb_sad_calc_nvm3PtS_ii'
GPGPU-Sim uArch: Shader 45 bind to kernel 1 '_Z16mb_sad_calc_nvm3PtS_ii'
GPGPU-Sim uArch: Shader 46 bind to kernel 1 '_Z16mb_sad_calc_nvm3PtS_ii'
GPGPU-Sim uArch: Shader 47 bind to kernel 1 '_Z16mb_sad_calc_nvm3PtS_ii'
GPGPU-Sim uArch: Shader 48 bind to kernel 1 '_Z16mb_sad_calc_nvm3PtS_ii'
GPGPU-Sim uArch: Shader 49 bind to kernel 1 '_Z16mb_sad_calc_nvm3PtS_ii'
GPGPU-Sim uArch: Shader 50 bind to kernel 1 '_Z16mb_sad_calc_nvm3PtS_ii'
GPGPU-Sim uArch: Shader 51 bind to kernel 1 '_Z16mb_sad_calc_nvm3PtS_ii'
GPGPU-Sim uArch: Shader 52 bind to kernel 1 '_Z16mb_sad_calc_nvm3PtS_ii'
GPGPU-Sim uArch: Shader 53 bind to kernel 1 '_Z16mb_sad_calc_nvm3PtS_ii'
GPGPU-Sim uArch: Shader 54 bind to kernel 1 '_Z16mb_sad_calc_nvm3PtS_ii'
GPGPU-Sim uArch: Shader 55 bind to kernel 1 '_Z16mb_sad_calc_nvm3PtS_ii'
GPGPU-Sim uArch: Shader 56 bind to kernel 1 '_Z16mb_sad_calc_nvm3PtS_ii'
GPGPU-Sim uArch: Shader 57 bind to kernel 1 '_Z16mb_sad_calc_nvm3PtS_ii'
GPGPU-Sim uArch: Shader 58 bind to kernel 1 '_Z16mb_sad_calc_nvm3PtS_ii'
GPGPU-Sim uArch: Shader 59 bind to kernel 1 '_Z16mb_sad_calc_nvm3PtS_ii'
GPGPU-Sim uArch: Shader 60 bind to kernel 1 '_Z16mb_sad_calc_nvm3PtS_ii'
GPGPU-Sim uArch: Shader 61 bind to kernel 1 '_Z16mb_sad_calc_nvm3PtS_ii'
GPGPU-Sim uArch: Shader 62 bind to kernel 1 '_Z16mb_sad_calc_nvm3PtS_ii'
GPGPU-Sim uArch: Shader 63 bind to kernel 1 '_Z16mb_sad_calc_nvm3PtS_ii'
GPGPU-Sim uArch: Shader 64 bind to kernel 1 '_Z16mb_sad_calc_nvm3PtS_ii'
GPGPU-Sim uArch: Shader 65 bind to kernel 1 '_Z16mb_sad_calc_nvm3PtS_ii'
GPGPU-Sim uArch: Shader 66 bind to kernel 1 '_Z16mb_sad_calc_nvm3PtS_ii'
GPGPU-Sim uArch: Shader 67 bind to kernel 1 '_Z16mb_sad_calc_nvm3PtS_ii'
GPGPU-Sim uArch: Shader 68 bind to kernel 1 '_Z16mb_sad_calc_nvm3PtS_ii'
GPGPU-Sim uArch: Shader 69 bind to kernel 1 '_Z16mb_sad_calc_nvm3PtS_ii'
GPGPU-Sim uArch: Shader 70 bind to kernel 1 '_Z16mb_sad_calc_nvm3PtS_ii'
GPGPU-Sim uArch: Shader 71 bind to kernel 1 '_Z16mb_sad_calc_nvm3PtS_ii'
GPGPU-Sim uArch: Shader 72 bind to kernel 1 '_Z16mb_sad_calc_nvm3PtS_ii'
GPGPU-Sim uArch: Shader 73 bind to kernel 1 '_Z16mb_sad_calc_nvm3PtS_ii'
GPGPU-Sim uArch: Shader 74 bind to kernel 1 '_Z16mb_sad_calc_nvm3PtS_ii'
GPGPU-Sim uArch: Shader 75 bind to kernel 1 '_Z16mb_sad_calc_nvm3PtS_ii'
GPGPU-Sim uArch: Shader 76 bind to kernel 1 '_Z16mb_sad_calc_nvm3PtS_ii'
GPGPU-Sim uArch: Shader 77 bind to kernel 1 '_Z16mb_sad_calc_nvm3PtS_ii'
GPGPU-Sim uArch: Shader 78 bind to kernel 1 '_Z16mb_sad_calc_nvm3PtS_ii'
GPGPU-Sim uArch: Shader 79 bind to kernel 1 '_Z16mb_sad_calc_nvm3PtS_ii'
Destroy streams for kernel 1: size 0
kernel_name = _Z16mb_sad_calc_nvm3PtS_ii 
kernel_launch_uid = 1 
gpu_sim_cycle = 783341
gpu_sim_insn = 244617120
gpu_ipc =     312.2741
gpu_tot_sim_cycle = 783341
gpu_tot_sim_insn = 244617120
gpu_tot_ipc =     312.2741
gpu_tot_issued_cta = 1584
gpu_occupancy = 53.0657% 
gpu_tot_occupancy = 53.0657% 
max_total_param_size = 0
gpu_stall_dramfull = 728450
gpu_stall_icnt2sh    = 0
partiton_level_parallism =       9.5862
partiton_level_parallism_total  =       9.5862
partiton_level_parallism_util =       9.6866
partiton_level_parallism_util_total  =       9.6866
L2_BW  =     349.3555 GB/Sec
L2_BW_total  =     349.3555 GB/Sec
gpu_total_sim_rate=43627
############## bottleneck_stats #############
cycles: core 783341, icnt 783341, l2 783341, dram 588197
gpu_ipc	312.274
gpu_tot_issued_cta = 1584, average cycles = 495
n_dram_writes	 0, n_dram_reads	 0
n_GLOBAL_ACC_R	 108505 
n_LOCAL_ACC_R	 0 
n_CONST_ACC_R	 0 
n_TEXTURE_ACC_R	 0 
n_GLOBAL_ACC_W	 0 
n_LOCAL_ACC_W	 0 
n_L1_WRBK_ACC	 0 
n_L2_WRBK_ACC	 548155 
n_L1_WR_ALLOC_R	 0 
n_L2_WR_ALLOC_R	 0 

n_sm	 80, n_schedulers	 4
scheduler util	0.033	80
L1D data util	0.290	80	0.355	44
L1D tag util	0.392	80	0.424	24
L2 data util	0.159	64	0.696	10
L2 tag util	0.151	64	0.632	10
n_l2_access	 7555730
icnt s2m util	0.000	0	0.000	10	flits per packet: -nan
icnt m2s util	0.000	0	0.000	10	flits per packet: -nan
sum=0
n_mem	 32
dram util	0.080	32	0.258	5

latency_l1_hit:	89260274, num_l1_reqs:	2003500
L1 hit latency:	44
latency_l2_hit:	-2033039333, num_l2_reqs:	5717973
L2 hit latency:	2648
latency_dram:	-1667293270, num_dram_reqs:	1836810
DRAM latency:	6107

n_reg	65536, n_smem	98304, n_thread	2048, n_tb	32
reg file	0.984
smem size	0.000
thread slot	0.562
TB slot    	0.562
L1I tag util	0.067	80	0.081	24

n_mem_pipe	1, n_sp_pipe	4, n_sfu_pipe	4
mem pipe util	0.034	80	0.041	24
sp pipe util	0.000	0	0.000	24
sfu pipe util	0.000	0	0.000	24
ldst mem cycle	0.055	80	0.067	24

smem port	0.000	0

n_reg_bank	16
reg port	0.048	16	0.053	0
L1D tag util	0.392	80	0.424	24
L1D fill util	0.009	80	0.013	44
n_l1d_mshr	4096
L1D mshr util	0.011	80
n_l1d_missq	16
L1D missq util	0.352	80
L1D hit rate	0.082
L1D miss rate	0.167
L1D rsfail rate	0.752
L2 tag util	0.151	64	0.632	10
L2 fill util	0.002	64	0.002	0
n_l2_mshr	192
n_l2_missq	32
L2 mshr util	0.005	64	0.010	10
L2 missq util	0.000	64	0.003	10
L2 hit rate	0.757
L2 miss rate	0.243
L2 rsfail rate	0.000

dram activity	0.162	32	0.508	5

load trans eff	0.062
load trans sz	32.000
load_useful_bytes 5274720, load_transaction_bytes 84395520, icnt_m2s_bytes 0
n_gmem_load_insns 969408, n_gmem_load_accesses 2637360
n_smem_access_insn 0, n_smem_accesses 0

tmp_counter/12	0.164

run 0.009, fetch 0.000, sync 0.073, control 0.000, data 0.875, struct 0.043
############ end_bottleneck_stats #############

========= Core cache stats =========
L1I_cache:
	L1I_total_cache_accesses = 0
	L1I_total_cache_misses = 0
	L1I_total_cache_pending_hits = 0
	L1I_total_cache_reservation_fails = 0
L1D_cache:
	L1D_cache_core[0]: Access = 73055, Miss = 49289, Miss_rate = 0.675, Pending_hits = 0, Reservation_fails = 235098
	L1D_cache_core[1]: Access = 69210, Miss = 46769, Miss_rate = 0.676, Pending_hits = 0, Reservation_fails = 248161
	L1D_cache_core[2]: Access = 69210, Miss = 47229, Miss_rate = 0.682, Pending_hits = 0, Reservation_fails = 230139
	L1D_cache_core[3]: Access = 69210, Miss = 46519, Miss_rate = 0.672, Pending_hits = 0, Reservation_fails = 242545
	L1D_cache_core[4]: Access = 76900, Miss = 52371, Miss_rate = 0.681, Pending_hits = 0, Reservation_fails = 239011
	L1D_cache_core[5]: Access = 69210, Miss = 46305, Miss_rate = 0.669, Pending_hits = 0, Reservation_fails = 232182
	L1D_cache_core[6]: Access = 84590, Miss = 56695, Miss_rate = 0.670, Pending_hits = 0, Reservation_fails = 244118
	L1D_cache_core[7]: Access = 76900, Miss = 51771, Miss_rate = 0.673, Pending_hits = 0, Reservation_fails = 240766
	L1D_cache_core[8]: Access = 84590, Miss = 56461, Miss_rate = 0.667, Pending_hits = 0, Reservation_fails = 237118
	L1D_cache_core[9]: Access = 69210, Miss = 45806, Miss_rate = 0.662, Pending_hits = 0, Reservation_fails = 225049
	L1D_cache_core[10]: Access = 80745, Miss = 54165, Miss_rate = 0.671, Pending_hits = 0, Reservation_fails = 236079
	L1D_cache_core[11]: Access = 69210, Miss = 47277, Miss_rate = 0.683, Pending_hits = 0, Reservation_fails = 240893
	L1D_cache_core[12]: Access = 69210, Miss = 46050, Miss_rate = 0.665, Pending_hits = 0, Reservation_fails = 228941
	L1D_cache_core[13]: Access = 76900, Miss = 51518, Miss_rate = 0.670, Pending_hits = 0, Reservation_fails = 243067
	L1D_cache_core[14]: Access = 88435, Miss = 60171, Miss_rate = 0.680, Pending_hits = 0, Reservation_fails = 221497
	L1D_cache_core[15]: Access = 76900, Miss = 50563, Miss_rate = 0.658, Pending_hits = 0, Reservation_fails = 230540
	L1D_cache_core[16]: Access = 84590, Miss = 56197, Miss_rate = 0.664, Pending_hits = 0, Reservation_fails = 231978
	L1D_cache_core[17]: Access = 76900, Miss = 51681, Miss_rate = 0.672, Pending_hits = 0, Reservation_fails = 224083
	L1D_cache_core[18]: Access = 76900, Miss = 51196, Miss_rate = 0.666, Pending_hits = 0, Reservation_fails = 227806
	L1D_cache_core[19]: Access = 69210, Miss = 46717, Miss_rate = 0.675, Pending_hits = 0, Reservation_fails = 229211
	L1D_cache_core[20]: Access = 84590, Miss = 56731, Miss_rate = 0.671, Pending_hits = 0, Reservation_fails = 232135
	L1D_cache_core[21]: Access = 80745, Miss = 54350, Miss_rate = 0.673, Pending_hits = 0, Reservation_fails = 238985
	L1D_cache_core[22]: Access = 76900, Miss = 51416, Miss_rate = 0.669, Pending_hits = 0, Reservation_fails = 207607
	L1D_cache_core[23]: Access = 76900, Miss = 51857, Miss_rate = 0.674, Pending_hits = 0, Reservation_fails = 238552
	L1D_cache_core[24]: Access = 92280, Miss = 61353, Miss_rate = 0.665, Pending_hits = 0, Reservation_fails = 239746
	L1D_cache_core[25]: Access = 69210, Miss = 46516, Miss_rate = 0.672, Pending_hits = 0, Reservation_fails = 246284
	L1D_cache_core[26]: Access = 76900, Miss = 51643, Miss_rate = 0.672, Pending_hits = 0, Reservation_fails = 236110
	L1D_cache_core[27]: Access = 69210, Miss = 46183, Miss_rate = 0.667, Pending_hits = 0, Reservation_fails = 234926
	L1D_cache_core[28]: Access = 69210, Miss = 45531, Miss_rate = 0.658, Pending_hits = 0, Reservation_fails = 221491
	L1D_cache_core[29]: Access = 69210, Miss = 47408, Miss_rate = 0.685, Pending_hits = 0, Reservation_fails = 240285
	L1D_cache_core[30]: Access = 76900, Miss = 51858, Miss_rate = 0.674, Pending_hits = 0, Reservation_fails = 216734
	L1D_cache_core[31]: Access = 69210, Miss = 46734, Miss_rate = 0.675, Pending_hits = 0, Reservation_fails = 246566
	L1D_cache_core[32]: Access = 76900, Miss = 50158, Miss_rate = 0.652, Pending_hits = 0, Reservation_fails = 214009
	L1D_cache_core[33]: Access = 69210, Miss = 46238, Miss_rate = 0.668, Pending_hits = 0, Reservation_fails = 210987
	L1D_cache_core[34]: Access = 84590, Miss = 57125, Miss_rate = 0.675, Pending_hits = 0, Reservation_fails = 227634
	L1D_cache_core[35]: Access = 69210, Miss = 47563, Miss_rate = 0.687, Pending_hits = 0, Reservation_fails = 229113
	L1D_cache_core[36]: Access = 73055, Miss = 49629, Miss_rate = 0.679, Pending_hits = 0, Reservation_fails = 228959
	L1D_cache_core[37]: Access = 73055, Miss = 49985, Miss_rate = 0.684, Pending_hits = 0, Reservation_fails = 249300
	L1D_cache_core[38]: Access = 92280, Miss = 62005, Miss_rate = 0.672, Pending_hits = 0, Reservation_fails = 230470
	L1D_cache_core[39]: Access = 69210, Miss = 46480, Miss_rate = 0.672, Pending_hits = 0, Reservation_fails = 236101
	L1D_cache_core[40]: Access = 84590, Miss = 57099, Miss_rate = 0.675, Pending_hits = 0, Reservation_fails = 236226
	L1D_cache_core[41]: Access = 69210, Miss = 46638, Miss_rate = 0.674, Pending_hits = 0, Reservation_fails = 218626
	L1D_cache_core[42]: Access = 92280, Miss = 61457, Miss_rate = 0.666, Pending_hits = 0, Reservation_fails = 215368
	L1D_cache_core[43]: Access = 69210, Miss = 46359, Miss_rate = 0.670, Pending_hits = 0, Reservation_fails = 230104
	L1D_cache_core[44]: Access = 92280, Miss = 63040, Miss_rate = 0.683, Pending_hits = 0, Reservation_fails = 236827
	L1D_cache_core[45]: Access = 69210, Miss = 47100, Miss_rate = 0.681, Pending_hits = 0, Reservation_fails = 241012
	L1D_cache_core[46]: Access = 76900, Miss = 51098, Miss_rate = 0.664, Pending_hits = 0, Reservation_fails = 221813
	L1D_cache_core[47]: Access = 69210, Miss = 46553, Miss_rate = 0.673, Pending_hits = 0, Reservation_fails = 225136
	L1D_cache_core[48]: Access = 76900, Miss = 51207, Miss_rate = 0.666, Pending_hits = 0, Reservation_fails = 218904
	L1D_cache_core[49]: Access = 69210, Miss = 46352, Miss_rate = 0.670, Pending_hits = 0, Reservation_fails = 237611
	L1D_cache_core[50]: Access = 69210, Miss = 46534, Miss_rate = 0.672, Pending_hits = 0, Reservation_fails = 230322
	L1D_cache_core[51]: Access = 76900, Miss = 51246, Miss_rate = 0.666, Pending_hits = 0, Reservation_fails = 224511
	L1D_cache_core[52]: Access = 76900, Miss = 51453, Miss_rate = 0.669, Pending_hits = 0, Reservation_fails = 238097
	L1D_cache_core[53]: Access = 69210, Miss = 45411, Miss_rate = 0.656, Pending_hits = 0, Reservation_fails = 234923
	L1D_cache_core[54]: Access = 76900, Miss = 52357, Miss_rate = 0.681, Pending_hits = 0, Reservation_fails = 229009
	L1D_cache_core[55]: Access = 69210, Miss = 46812, Miss_rate = 0.676, Pending_hits = 0, Reservation_fails = 236082
	L1D_cache_core[56]: Access = 69210, Miss = 46495, Miss_rate = 0.672, Pending_hits = 0, Reservation_fails = 222172
	L1D_cache_core[57]: Access = 69210, Miss = 46121, Miss_rate = 0.666, Pending_hits = 0, Reservation_fails = 241832
	L1D_cache_core[58]: Access = 84590, Miss = 56016, Miss_rate = 0.662, Pending_hits = 0, Reservation_fails = 232326
	L1D_cache_core[59]: Access = 76900, Miss = 50819, Miss_rate = 0.661, Pending_hits = 0, Reservation_fails = 237301
	L1D_cache_core[60]: Access = 76900, Miss = 51550, Miss_rate = 0.670, Pending_hits = 0, Reservation_fails = 234655
	L1D_cache_core[61]: Access = 69210, Miss = 46215, Miss_rate = 0.668, Pending_hits = 0, Reservation_fails = 228000
	L1D_cache_core[62]: Access = 92280, Miss = 60761, Miss_rate = 0.658, Pending_hits = 0, Reservation_fails = 226551
	L1D_cache_core[63]: Access = 84590, Miss = 56970, Miss_rate = 0.673, Pending_hits = 0, Reservation_fails = 233212
	L1D_cache_core[64]: Access = 69210, Miss = 47374, Miss_rate = 0.684, Pending_hits = 0, Reservation_fails = 241406
	L1D_cache_core[65]: Access = 76900, Miss = 51128, Miss_rate = 0.665, Pending_hits = 0, Reservation_fails = 221581
	L1D_cache_core[66]: Access = 84590, Miss = 56538, Miss_rate = 0.668, Pending_hits = 0, Reservation_fails = 203838
	L1D_cache_core[67]: Access = 69210, Miss = 46532, Miss_rate = 0.672, Pending_hits = 0, Reservation_fails = 225078
	L1D_cache_core[68]: Access = 88435, Miss = 58473, Miss_rate = 0.661, Pending_hits = 0, Reservation_fails = 218847
	L1D_cache_core[69]: Access = 69210, Miss = 45939, Miss_rate = 0.664, Pending_hits = 0, Reservation_fails = 232720
	L1D_cache_core[70]: Access = 84590, Miss = 55955, Miss_rate = 0.661, Pending_hits = 0, Reservation_fails = 209651
	L1D_cache_core[71]: Access = 69210, Miss = 47009, Miss_rate = 0.679, Pending_hits = 0, Reservation_fails = 241548
	L1D_cache_core[72]: Access = 88435, Miss = 59520, Miss_rate = 0.673, Pending_hits = 0, Reservation_fails = 212803
	L1D_cache_core[73]: Access = 76900, Miss = 51335, Miss_rate = 0.668, Pending_hits = 0, Reservation_fails = 219779
	L1D_cache_core[74]: Access = 76900, Miss = 52479, Miss_rate = 0.682, Pending_hits = 0, Reservation_fails = 225628
	L1D_cache_core[75]: Access = 69210, Miss = 47094, Miss_rate = 0.680, Pending_hits = 0, Reservation_fails = 245407
	L1D_cache_core[76]: Access = 92280, Miss = 60833, Miss_rate = 0.659, Pending_hits = 0, Reservation_fails = 229075
	L1D_cache_core[77]: Access = 69210, Miss = 47351, Miss_rate = 0.684, Pending_hits = 0, Reservation_fails = 231957
	L1D_cache_core[78]: Access = 76900, Miss = 51658, Miss_rate = 0.672, Pending_hits = 0, Reservation_fails = 216643
	L1D_cache_core[79]: Access = 69210, Miss = 46586, Miss_rate = 0.673, Pending_hits = 0, Reservation_fails = 231552
	L1D_total_cache_accesses = 6090480
	L1D_total_cache_misses = 4086980
	L1D_total_cache_miss_rate = 0.6710
	L1D_total_cache_pending_hits = 0
	L1D_total_cache_reservation_fails = 18452409
	L1D_cache_data_port_util = 0.034
	L1D_cache_fill_port_util = 0.010
L1C_cache:
	L1C_total_cache_accesses = 0
	L1C_total_cache_misses = 0
	L1C_total_cache_pending_hits = 0
	L1C_total_cache_reservation_fails = 0
L1T_cache:
	L1T_total_cache_accesses = 8175273
	L1T_total_cache_misses = 15177
	L1T_total_cache_miss_rate = 0.0019
	L1T_total_cache_pending_hits = 8160096
	L1T_total_cache_reservation_fails = 0

Total_core_cache_stats:
	Total_core_cache_stats_breakdown[GLOBAL_ACC_R][HIT] = 2003500
	Total_core_cache_stats_breakdown[GLOBAL_ACC_R][HIT_RESERVED] = 0
	Total_core_cache_stats_breakdown[GLOBAL_ACC_R][MISS] = 532745
	Total_core_cache_stats_breakdown[GLOBAL_ACC_R][RESERVATION_FAIL] = 4006665
	Total_core_cache_stats_breakdown[GLOBAL_ACC_R][SECTOR_MISS] = 101115
	Total_core_cache_stats_breakdown[LOCAL_ACC_R][HIT] = 0
	Total_core_cache_stats_breakdown[LOCAL_ACC_R][HIT_RESERVED] = 0
	Total_core_cache_stats_breakdown[LOCAL_ACC_R][MISS] = 0
	Total_core_cache_stats_breakdown[LOCAL_ACC_R][RESERVATION_FAIL] = 0
	Total_core_cache_stats_breakdown[LOCAL_ACC_R][SECTOR_MISS] = 0
	Total_core_cache_stats_breakdown[CONST_ACC_R][HIT] = 0
	Total_core_cache_stats_breakdown[CONST_ACC_R][HIT_RESERVED] = 0
	Total_core_cache_stats_breakdown[CONST_ACC_R][MISS] = 0
	Total_core_cache_stats_breakdown[CONST_ACC_R][RESERVATION_FAIL] = 0
	Total_core_cache_stats_breakdown[CONST_ACC_R][SECTOR_MISS] = 0
	Total_core_cache_stats_breakdown[TEXTURE_ACC_R][HIT] = 0
	Total_core_cache_stats_breakdown[TEXTURE_ACC_R][HIT_RESERVED] = 8160096
	Total_core_cache_stats_breakdown[TEXTURE_ACC_R][MISS] = 15177
	Total_core_cache_stats_breakdown[TEXTURE_ACC_R][RESERVATION_FAIL] = 0
	Total_core_cache_stats_breakdown[TEXTURE_ACC_R][SECTOR_MISS] = 0
	Total_core_cache_stats_breakdown[GLOBAL_ACC_W][HIT] = 0
	Total_core_cache_stats_breakdown[GLOBAL_ACC_W][HIT_RESERVED] = 0
	Total_core_cache_stats_breakdown[GLOBAL_ACC_W][MISS] = 3453120
	Total_core_cache_stats_breakdown[GLOBAL_ACC_W][RESERVATION_FAIL] = 14445744
	Total_core_cache_stats_breakdown[GLOBAL_ACC_W][SECTOR_MISS] = 0
	Total_core_cache_stats_breakdown[LOCAL_ACC_W][HIT] = 0
	Total_core_cache_stats_breakdown[LOCAL_ACC_W][HIT_RESERVED] = 0
	Total_core_cache_stats_breakdown[LOCAL_ACC_W][MISS] = 0
	Total_core_cache_stats_breakdown[LOCAL_ACC_W][RESERVATION_FAIL] = 0
	Total_core_cache_stats_breakdown[LOCAL_ACC_W][SECTOR_MISS] = 0
	Total_core_cache_stats_breakdown[L1_WRBK_ACC][HIT] = 0
	Total_core_cache_stats_breakdown[L1_WRBK_ACC][HIT_RESERVED] = 0
	Total_core_cache_stats_breakdown[L1_WRBK_ACC][MISS] = 0
	Total_core_cache_stats_breakdown[L1_WRBK_ACC][RESERVATION_FAIL] = 0
	Total_core_cache_stats_breakdown[L1_WRBK_ACC][SECTOR_MISS] = 0
	Total_core_cache_stats_breakdown[L2_WRBK_ACC][HIT] = 0
	Total_core_cache_stats_breakdown[L2_WRBK_ACC][HIT_RESERVED] = 0
	Total_core_cache_stats_breakdown[L2_WRBK_ACC][MISS] = 0
	Total_core_cache_stats_breakdown[L2_WRBK_ACC][RESERVATION_FAIL] = 0
	Total_core_cache_stats_breakdown[L2_WRBK_ACC][SECTOR_MISS] = 0
	Total_core_cache_stats_breakdown[INST_ACC_R][HIT] = 0
	Total_core_cache_stats_breakdown[INST_ACC_R][HIT_RESERVED] = 0
	Total_core_cache_stats_breakdown[INST_ACC_R][MISS] = 0
	Total_core_cache_stats_breakdown[INST_ACC_R][RESERVATION_FAIL] = 0
	Total_core_cache_stats_breakdown[INST_ACC_R][SECTOR_MISS] = 0
	Total_core_cache_stats_breakdown[L1_WR_ALLOC_R][HIT] = 0
	Total_core_cache_stats_breakdown[L1_WR_ALLOC_R][HIT_RESERVED] = 0
	Total_core_cache_stats_breakdown[L1_WR_ALLOC_R][MISS] = 0
	Total_core_cache_stats_breakdown[L1_WR_ALLOC_R][RESERVATION_FAIL] = 0
	Total_core_cache_stats_breakdown[L1_WR_ALLOC_R][SECTOR_MISS] = 0
	Total_core_cache_stats_breakdown[L2_WR_ALLOC_R][HIT] = 0
	Total_core_cache_stats_breakdown[L2_WR_ALLOC_R][HIT_RESERVED] = 0
	Total_core_cache_stats_breakdown[L2_WR_ALLOC_R][MISS] = 0
	Total_core_cache_stats_breakdown[L2_WR_ALLOC_R][RESERVATION_FAIL] = 0
	Total_core_cache_stats_breakdown[L2_WR_ALLOC_R][SECTOR_MISS] = 0
	Total_core_cache_stats_breakdown[GLOBAL_ACC_R][TOTAL_ACCESS] = 2637360
	Total_core_cache_stats_breakdown[TEXTURE_ACC_R][TOTAL_ACCESS] = 8175273
	Total_core_cache_stats_breakdown[GLOBAL_ACC_W][TOTAL_ACCESS] = 3453120

Total_core_cache_fail_stats:
	Total_core_cache_fail_stats_breakdown[GLOBAL_ACC_R][MISS_QUEUE_FULL] = 4006665
	Total_core_cache_fail_stats_breakdown[GLOBAL_ACC_W][MISS_QUEUE_FULL] = 14445744
Shader 0 warp_id issue ditsribution:
warp_id:
0, 1, 2, 3, 4, 5, 6, 7, 8, 9, 10, 11, 12, 13, 14, 15, 16, 17, 18, 19, 20, 21, 22, 23, 24, 25, 26, 27, 28, 29, 30, 31, 32, 33, 34, 35, 
distro:
5194, 5138, 2597, 2569, 2597, 2569, 2597, 2569, 2597, 2569, 2597, 2569, 2597, 2569, 2597, 2569, 2597, 2569, 2597, 2569, 2597, 2569, 2597, 2569, 2597, 2569, 2597, 2569, 2597, 2569, 2597, 2569, 2597, 2569, 2597, 2569, 
gpgpu_n_tot_thrd_icount = 261854208
gpgpu_n_tot_w_icount = 8182944
gpgpu_n_stall_shd_mem = 54821320
gpgpu_n_mem_read_local = 0
gpgpu_n_mem_write_local = 0
gpgpu_n_mem_read_global = 587835
gpgpu_n_mem_write_global = 6906240
gpgpu_n_mem_texture = 15177
gpgpu_n_mem_const = 0
gpgpu_n_load_insn  = 29324592
gpgpu_n_store_insn = 6906240
gpgpu_n_shmem_insn = 0
gpgpu_n_sstarr_insn = 0
gpgpu_n_tex_insn = 27599616
gpgpu_n_const_mem_insn = 0
gpgpu_n_param_mem_insn = 386496
gpgpu_n_shmem_bkconflict = 0
gpgpu_n_cache_bkconflict = 0
gpgpu_n_intrawarp_mshr_merge = 0
gpgpu_n_cmem_portconflict = 0
gpgpu_stall_shd_mem[c_mem][resource_stall] = 0
gpgpu_stall_shd_mem[s_mem][bk_conf] = 0
gpgpu_stall_shd_mem[gl_mem][resource_stall] = 21550514
gpgpu_stall_shd_mem[gl_mem][coal_stall] = 3335904
gpgpu_stall_shd_mem[gl_mem][data_port_stall] = 0
gpu_reg_bank_conflict_stalls = 0
Warp Occupancy Distribution:
Stall:201163276	W0_Idle:704118	W0_Scoreboard:23595794	W1:44352	W2:0	W3:0	W4:0	W5:0	W6:0	W7:0	W8:0	W9:0	W10:0	W11:0	W12:0	W13:0	W14:0	W15:0	W16:0	W17:0	W18:0	W19:0	W20:0	W21:0	W22:0	W23:0	W24:0	W25:0	W26:0	W27:0	W28:1916640	W29:2152656	W30:0	W31:0	W32:4069296
single_issue_nums: WS0:2062018	WS1:2039786	WS2:2051630	WS3:2029510	
dual_issue_nums: WS0:0	WS1:0	WS2:0	WS3:0	
traffic_breakdown_coretomem[GLOBAL_ACC_R] = 4702680 {8:587835,}
traffic_breakdown_coretomem[GLOBAL_ACC_W] = 165749760 {8:3453120,40:3453120,}
traffic_breakdown_coretomem[TEXTURE_ACC_R] = 121416 {8:15177,}
traffic_breakdown_memtocore[GLOBAL_ACC_R] = 23513400 {40:587835,}
traffic_breakdown_memtocore[GLOBAL_ACC_W] = 55249920 {8:6906240,}
traffic_breakdown_memtocore[TEXTURE_ACC_R] = 2428320 {40:60708,}
maxmflatency = 95131 
max_icnt2mem_latency = 17047 
maxmrqlatency = 83312 
max_icnt2sh_latency = 823 
averagemflatency = 3489 
avg_icnt2mem_latency = 3304 
avg_mrq_latency = 78 
avg_icnt2sh_latency = 9 
mrq_lat_table:67185 	59540 	43666 	73044 	105147 	118809 	82981 	48427 	54934 	2636 	63 	22 	32 	59 	77 	35 	3 	0 	0 	0 	0 	0 	0 	0 	0 	0 	0 	0 	0 	0 	0 	0 	
dq_lat_table:0 	0 	0 	0 	0 	0 	0 	0 	0 	0 	0 	0 	0 	0 	0 	0 	0 	0 	0 	0 	0 	0 	0 	0 	0 	0 	0 	0 	0 	0 	0 	0 	
mf_lat_table:0 	0 	0 	0 	0 	0 	0 	2262590 	644079 	418880 	300361 	455193 	2852033 	621373 	213 	49 	12 	0 	0 	0 	0 	0 	0 	0 	0 	0 	0 	0 	0 	0 	0 	0 	
icnt2mem_lat_table:0 	174421 	70438 	102884 	1294739 	547525 	300928 	287508 	277790 	311311 	265852 	452835 	2898664 	524327 	30 	0 	0 	0 	0 	0 	0 	0 	0 	0 	
icnt2sh_lat_table:0 	5262628 	675381 	544249 	492916 	347653 	178191 	49600 	3401 	764 	0 	0 	0 	0 	0 	0 	0 	0 	0 	0 	0 	0 	0 	0 	
mf_lat_pw_table:0 	0 	0 	0 	0 	0 	0 	218 	112 	30 	119 	44 	999 	33 	0 	0 	0 	0 	0 	0 	0 	0 	0 	0 	0 	0 	0 	0 	0 	0 	0 	0 	
maximum concurrent accesses to same row:
dram[0]:        56        55        58        50        56        42        58        57        58        56        56        56        58        57        57        58 
dram[1]:      6944        56        58        48        57        42        58        58        57        57        58        58        57        57        58        58 
dram[2]:     17518        57        58        51        58        45        57        58        56        56        58        58        58        56        58        58 
dram[3]:     19972        58        58        51        58        53        58        57        58        56        58        58        57        58        58        58 
dram[4]:     23047        57        57        54        58        57        57        58        56        58        58        58        56        58        57        57 
dram[5]:     15325        57        56        55        57        58        50        58        58        58        56        57        59        57        56        57 
dram[6]:     21761        58        56        56        58        57        51        56        58        57        56        58        58        58        56        58 
dram[7]:     21971        56        57        57        58        54        56        58        56        58        57        58        58        58        57        57 
dram[8]:     21894        57        58        58        56        54        57        58        58        57        58        56        58        58        58        58 
dram[9]:     15175        56        58        57        56        56        58        57        58        56        58        57        56        56        58        59 
dram[10]:       133        56        57        57        56        56        56        56        58        57        58        59        58        56        58        58 
dram[11]:        56        58        56        58        58        57        58        58        58        56        58        58        56        57        58        58 
dram[12]:        58        58        57        57        59        56        58        57        58        57        58        58        56        58        57        58 
dram[13]:        58        57        56        56        58        58        56        58        57        58        56        58        58        57        57        56 
dram[14]:        56        58        56        55        58        57        57        57        58        56        57        57        59        58        56        58 
dram[15]:        58        57        58        56        58        56        57        56        57        58        56        58        58        58        57        58 
dram[16]:        58        56        56        58        56        57        57        55        57        58        58        57        57        58        58        57 
dram[17]:        57        57        58        58        55        56        58        57        58        56        58        57        57        56        58        58 
dram[18]:        58        56        58        56        55        56        57        58        56        57        58        58        58        57        58        58 
dram[19]:        57        57        57        58        57        58        58        58        56        57        58        59        58        56        58        57 
dram[20]:        57        58        56        58        56        56        58        56        58        58        58        58        56        58        57        58 
dram[21]:        58        56        56        54        58        58        57        58        56        58        56        58        58        57        57        57 
dram[22]:        56        58        56        54        53        57        57        57        58        57        58        56        58        57        57        58 
dram[23]:        56        58        58        56        50        56        58        56        58        58        56        58        59        58        57        55 
dram[24]:        54        57        58        56        49        56        56        56        56        58        57        58        58        58        58        57 
dram[25]:        56        57        57        58        49        56        58        56        58        57        58        57        57        56        58        58 
dram[26]:        58        57        58        57        52        58        58        57        56        58        58        58        56        58        58        58 
dram[27]:        58        56        57        57        56        58        57        58        57        58        58        58        56        56        58        59 
dram[28]:        56        58        56        58        58        58        58        53        58        58        58        59        55        58        57        58 
dram[29]:        58        58        55        56        51        58        58        50        57        58        56        56        58        58        57        57 
dram[30]:        58        58        56        53        56        57        50        50        57        58        58        56        58        56        58        57 
dram[31]:        56        58        58        55        47        56        58        56        58        57        57        57        58        58        56        58 
maximum service time to same row:
dram[0]:    353239    374144    404171    358835    300288    324415    296025    304109    383177    383861    381362    391495    388367    363263    387991    351846 
dram[1]:    229080    365463    403834    358442    262739    312902    298345    303716    382823    383475    566950    358417    387994    386559    390468    333433 
dram[2]:    232239    376433    399242    358505    299939    310522    298579    290308    348049    383465    398072    376296    388218    386505    390402    333440 
dram[3]:    243745    348857    399133    323960    324823    276416    298583    330178    342354    403460    398093    376298    389399    386774    378528    333705 
dram[4]:    275161    353858    399094    322049    326174    310859    298590    357995    373684    372961    357173    389959    390574    386597    378557    352666 
dram[5]:    200090    353920    375370    322060    326120    276437    245030    330178    363118    403456    360737    411571    389499    363640    378855    351769 
dram[6]:    254548    350465    357466    319734    299731    287066    474195    316244    419840    403661    499991    411576    390235    347679    489774    351184 
dram[7]:    264563    350021    347837    369299    284465    297739    233277    306628    419946    403667    386531    412492    418705    375808    342494    366653 
dram[8]:    263724    350061    346388    318949    291317    305507    233244    305394    427943    374480    386746    398935    402643    342602    342616    366654 
dram[9]:    208944    370016    332619    297029    351616    352598    240434    316702    428156    374482    380088    412455    375221    342596    343548    363030 
dram[10]:    190041    368537    305916    348434    285364    335765    265513    317064    377666    374751    380464    383756    370039    342997    345874    363434 
dram[11]:    239001    368795    306077    339771    324007    488798    265611    307678    364533    533818    340281    383756    370104    390027    346183    397542 
dram[12]:    274635    368602    306080    337937    335140    335760    265605    307678    377650    395799    340277    383757    369209    384301    363236    365835 
dram[13]:    234064    368605    382819    308336    335847    315699    295624    307679    377645    384377    340266    391194    408152    390092    363228    400474 
dram[14]:    211285    359898    353413    337849    335846    315700    474744    298415    422734    395136    340375    504895    408319    390087    363227    400475 
dram[15]:    208018    351628    392864    308247    335842    291319    392178    307670    423115    395136    350669    504892    411153    390083    347423    400482 
dram[16]:    211047    337902    350044    338009    319212    291878    386893    270736    423112    395136    353178    392430    411223    396577    353966    363480 
dram[17]:    221006    337897    390757    292036    319212    291873    379290    271323    423111    356232    368034    406156    415006    396577    353038    361583 
dram[18]:    219314    337894    353387    292036    319215    305825    379294    312199    363232    346277    378568    406152    394265    396580    393666    354839 
dram[19]:    243110    364652    321713    344881    307690    503518    379869    312199    363658    356227    394863    364693    413689    314392    391394    354835 
dram[20]:    257289    364250    321716    350621    323369    503507    468855    269724    362493    550368    404763    371445    414239    399515    382111    354829 
dram[21]:    228125    364250    308180    318010    313964    399002    422553    287829    363542    368944    410103    517337    414239    399519    382112    396023 
dram[22]:    260268    348650    334839    350621    313967    405426    422557    287937    381339    369510    411192    349141    391507    399807    382112    382496 
dram[23]:    253453    348651    344080    318085    313967    405428    427872    287937    383287    554478    414178    374228    392277    399808    354535    393344 
dram[24]:    354753    348658    344083    284581    306439    565207    438196    248039    391315    414053    387935    374224    397375    353221    344445    271390 
dram[25]:    386995    349157    344172    327658    294857    565730    335997    248043    391364    414051    393370    373037    397372    353227    344452    393329 
dram[26]:    392857    353333    336677    305229    294857    563755    364440    295953    369284    414055    389260    347413    349586    346102    344598    323583 
dram[27]:    393303    344166    319715    302315    293749    563137    364437    174278    419162    369184    389260    378324    363555    330037    362854    323752 
dram[28]:    384099    344169    307090    325852    294849    533203    391483    298816    419161    472186    402705    378324    363548    329379    363255    340137 
dram[29]:    384097    339717    307092    322742    338078    555037    365647    296046    419253    530137    402701    378327    349519    339131    333839    377750 
dram[30]:    365852    339712    324365    302153    324422    287849    317784    267196    418992    530132    391513    378327    372719    346332    350208    393037 
dram[31]:    365848    353236    359121    343463    324418    301123    304110    296033    382054    525862    385157    399166    363264    334714    350210    390892 
average row accesses per activate:
dram[0]: 20.111111 16.454546 14.000000 17.333334 16.214285 10.659091 14.666667 13.081081 13.352942 12.911765 18.150000 15.826087 15.739130 17.238094 20.222221 28.000000 
dram[1]: 138.455704 15.083333 19.105263 15.826087 18.160000 12.342105 14.205882 14.636364 12.611111 15.103448 21.470589 19.157894 18.100000 15.782609 20.222221 21.411764 
dram[2]: 234.133926 19.105263 24.133333 13.923077 16.214285 13.794118 16.724138 14.264706 12.555555 11.837838 17.285715 19.157894 17.285715 17.238094 20.111111 24.200001 
dram[3]: 237.904541 19.157894 21.294117 12.928572 12.611111 13.794118 13.444445 16.133333 12.971429 12.882353 19.052631 15.739130 15.826087 19.157894 19.052631 18.100000 
dram[4]: 227.346313 20.222221 15.782609 13.407408 12.971429 14.212121 11.255814 13.828571 14.645162 12.911765 21.294117 15.739130 19.105263 17.285715 17.238094 20.111111 
dram[5]: 294.311310 20.222221 18.100000 13.407408 16.777779 11.700000 11.000000 12.100000 14.612904 13.687500 14.480000 19.052631 21.470589 19.210526 17.285715 21.294117 
dram[6]: 235.402710 24.133333 22.750000 14.560000 13.294118 10.883721 12.410256 13.081081 15.689655 11.578947 14.520000 21.294117 21.352942 19.105263 21.352942 27.923077 
dram[7]: 318.503021 24.133333 20.166666 13.000000 15.689655 11.439024 13.828571 13.081081 16.814816 13.718750 15.826087 19.157894 15.739130 24.133333 21.411764 21.411764 
dram[8]: 317.222900 19.052631 15.208333 18.200001 14.187500 13.823529 14.235294 15.125000 16.814816 19.954546 18.150000 15.166667 15.739130 21.294117 27.923077 19.105263 
dram[9]: 288.475677 16.500000 14.000000 15.166667 12.971429 13.794118 15.093750 14.636364 18.160000 16.846153 14.560000 15.782609 17.238094 19.052631 20.277779 26.071428 
[...]
dram_eff_bins: 0 0 0 0 0 0 0 0 0 0
mrqq: max=43 avg=0.260754
Memory Partition 28: 
Cache L2_bank_056:

Cache L2_bank_057:

In Dram Latency Queue (total = 0): 
DRAM[28]: 16 bks, busW=16 BL=2 CL=12, tRRD=3 tCCD=1, tRCD=12 tRAS=28 tRP=12 tRC=40
n_cmd=588197 n_nop=576062 n_act=411 n_pre=395 n_ref_event=0 n_req=6412 n_rd=3392 n_rd_L2_A=0 n_write=0 n_wr_bk=8109 bw_util=0.01955
n_activity=34447 dram_eff=0.3339
bk0: 192a 586275i bk1: 192a 586767i bk2: 192a 586433i bk3: 192a 586176i bk4: 248a 585975i bk5: 248a 585860i bk6: 256a 585549i bk7: 256a 585554i bk8: 232a 585992i bk9: 232a 585915i bk10: 192a 586655i bk11: 192a 586449i bk12: 192a 586473i bk13: 192a 586519i bk14: 192a 586644i bk15: 192a 586456i 

------------------------------------------------------------------------

Row_Buffer_Locality = 0.935901
Row_Buffer_Locality_read = 0.927476
Row_Buffer_Locality_write = 0.945364
Bank_Level_Parallism = 1.481864
Bank_Level_Parallism_Col = 1.487802
Bank_Level_Parallism_Ready = 1.421007
write_to_read_ratio_blp_rw_average = 0.730956
GrpLevelPara = 1.318723 

BW Util details:
bwutil = 0.019553 
total_CMD = 588197 
util_bw = 11501 
Wasted_Col = 10553 
Wasted_Row = 3503 
Idle = 562640 

BW Util Bottlenecks: 
RCDc_limit = 2003 
RCDWRc_limit = 1375 
WTRc_limit = 569 
RTWc_limit = 130 
CCDLc_limit = 7535 
rwq = 0 
CCDLc_limit_alone = 7465 
WTRc_limit_alone = 509 
RTWc_limit_alone = 120 

Commands details: 
total_CMD = 588197 
n_nop = 576062 
Read = 3392 
Write = 0 
L2_Alloc = 0 
L2_WB = 8109 
n_act = 411 
n_pre = 395 
n_ref = 0 
n_req = 6412 
total_req = 11501 

Dual Bus Interface Util: 
issued_total_row = 806 
issued_total_col = 11501 
Row_Bus_Util =  0.001370 
CoL_Bus_Util = 0.019553 
Either_Row_CoL_Bus_Util = 0.020631 
Issued_on_Two_Bus_Simul_Util = 0.000292 
issued_two_Eff = 0.014174 
queue_avg = 0.252815 


dram_util_bins: 0 0 0 0 0 0 0 0 0 0
dram_eff_bins: 0 0 0 0 0 0 0 0 0 0
mrqq: max=37 avg=0.252815
Memory Partition 29: 
Cache L2_bank_058:

Cache L2_bank_059:

In Dram Latency Queue (total = 0): 
DRAM[29]: 16 bks, busW=16 BL=2 CL=12, tRRD=3 tCCD=1, tRCD=12 tRAS=28 tRP=12 tRC=40
n_cmd=588197 n_nop=576064 n_act=402 n_pre=386 n_ref_event=0 n_req=6412 n_rd=3392 n_rd_L2_A=0 n_write=0 n_wr_bk=8110 bw_util=0.01955
n_activity=34022 dram_eff=0.3381
bk0: 192a 586485i bk1: 192a 586714i bk2: 192a 586349i bk3: 192a 586224i bk4: 248a 585723i bk5: 248a 585746i bk6: 256a 585768i bk7: 256a 585562i bk8: 232a 585872i bk9: 232a 586038i bk10: 192a 586707i bk11: 192a 586517i bk12: 192a 586281i bk13: 192a 586596i bk14: 192a 586759i bk15: 192a 586543i 

------------------------------------------------------------------------

Row_Buffer_Locality = 0.937305
Row_Buffer_Locality_read = 0.929245
Row_Buffer_Locality_write = 0.946358
Bank_Level_Parallism = 1.495238
Bank_Level_Parallism_Col = 1.499164
Bank_Level_Parallism_Ready = 1.408625
write_to_read_ratio_blp_rw_average = 0.731353
GrpLevelPara = 1.330392 

BW Util details:
bwutil = 0.019555 
total_CMD = 588197 
util_bw = 11502 
Wasted_Col = 10313 
Wasted_Row = 3385 
Idle = 562997 

BW Util Bottlenecks: 
RCDc_limit = 1929 
RCDWRc_limit = 1362 
WTRc_limit = 587 
RTWc_limit = 146 
CCDLc_limit = 7367 
rwq = 0 
CCDLc_limit_alone = 7284 
WTRc_limit_alone = 519 
RTWc_limit_alone = 131 

Commands details: 
total_CMD = 588197 
n_nop = 576064 
Read = 3392 
Write = 0 
L2_Alloc = 0 
L2_WB = 8110 
n_act = 402 
n_pre = 386 
n_ref = 0 
n_req = 6412 
total_req = 11502 

Dual Bus Interface Util: 
issued_total_row = 788 
issued_total_col = 11502 
Row_Bus_Util =  0.001340 
CoL_Bus_Util = 0.019555 
Either_Row_CoL_Bus_Util = 0.020627 
Issued_on_Two_Bus_Simul_Util = 0.000267 
issued_two_Eff = 0.012940 
queue_avg = 0.238565 


dram_util_bins: 0 0 0 0 0 0 0 0 0 0
dram_eff_bins: 0 0 0 0 0 0 0 0 0 0
mrqq: max=37 avg=0.238565
Memory Partition 30: 
Cache L2_bank_060:

Cache L2_bank_061:

In Dram Latency Queue (total = 0): 
DRAM[30]: 16 bks, busW=16 BL=2 CL=12, tRRD=3 tCCD=1, tRCD=12 tRAS=28 tRP=12 tRC=40
n_cmd=588197 n_nop=576041 n_act=417 n_pre=401 n_ref_event=0 n_req=6414 n_rd=3392 n_rd_L2_A=0 n_write=0 n_wr_bk=8117 bw_util=0.01957
n_activity=34085 dram_eff=0.3377
bk0: 192a 586531i bk1: 192a 586711i bk2: 192a 586444i bk3: 192a 586278i bk4: 248a 585571i bk5: 248a 585692i bk6: 256a 585387i bk7: 256a 585392i bk8: 232a 585778i bk9: 232a 585991i bk10: 192a 586493i bk11: 192a 586445i bk12: 192a 586411i bk13: 192a 586561i bk14: 192a 586689i bk15: 192a 586612i 

------------------------------------------------------------------------

Row_Buffer_Locality = 0.934986
Row_Buffer_Locality_read = 0.926592
Row_Buffer_Locality_write = 0.944408
Bank_Level_Parallism = 1.522134
Bank_Level_Parallism_Col = 1.517863
Bank_Level_Parallism_Ready = 1.443913
write_to_read_ratio_blp_rw_average = 0.727139
GrpLevelPara = 1.340202 

BW Util details:
bwutil = 0.019567 
total_CMD = 588197 
util_bw = 11509 
Wasted_Col = 10467 
Wasted_Row = 3370 
Idle = 562851 

BW Util Bottlenecks: 
RCDc_limit = 2038 
RCDWRc_limit = 1385 
WTRc_limit = 680 
RTWc_limit = 110 
CCDLc_limit = 7461 
rwq = 0 
CCDLc_limit_alone = 7399 
WTRc_limit_alone = 632 
RTWc_limit_alone = 96 

Commands details: 
total_CMD = 588197 
n_nop = 576041 
Read = 3392 
Write = 0 
L2_Alloc = 0 
L2_WB = 8117 
n_act = 417 
n_pre = 401 
n_ref = 0 
n_req = 6414 
total_req = 11509 

Dual Bus Interface Util: 
issued_total_row = 818 
issued_total_col = 11509 
Row_Bus_Util =  0.001391 
CoL_Bus_Util = 0.019567 
Either_Row_CoL_Bus_Util = 0.020667 
Issued_on_Two_Bus_Simul_Util = 0.000291 
issued_two_Eff = 0.014067 
queue_avg = 0.306073 


dram_util_bins: 0 0 0 0 0 0 0 0 0 0
dram_eff_bins: 0 0 0 0 0 0 0 0 0 0
mrqq: max=54 avg=0.306073
Memory Partition 31: 
Cache L2_bank_062:

Cache L2_bank_063:

In Dram Latency Queue (total = 0): 
DRAM[31]: 16 bks, busW=16 BL=2 CL=12, tRRD=3 tCCD=1, tRCD=12 tRAS=28 tRP=12 tRC=40
n_cmd=588197 n_nop=576084 n_act=403 n_pre=387 n_ref_event=0 n_req=6415 n_rd=3392 n_rd_L2_A=0 n_write=0 n_wr_bk=8112 bw_util=0.01956
n_activity=33667 dram_eff=0.3417
bk0: 192a 586562i bk1: 192a 586652i bk2: 192a 586490i bk3: 192a 586343i bk4: 248a 585591i bk5: 248a 585794i bk6: 256a 585671i bk7: 256a 585631i bk8: 232a 586008i bk9: 232a 585995i bk10: 192a 586359i bk11: 192a 586415i bk12: 192a 586407i bk13: 192a 586494i bk14: 192a 586700i bk15: 192a 586634i 

------------------------------------------------------------------------

Row_Buffer_Locality = 0.937178
Row_Buffer_Locality_read = 0.928950
Row_Buffer_Locality_write = 0.946411
Bank_Level_Parallism = 1.514172
Bank_Level_Parallism_Col = 1.511995
Bank_Level_Parallism_Ready = 1.427069
write_to_read_ratio_blp_rw_average = 0.732811
GrpLevelPara = 1.330554 

BW Util details:
bwutil = 0.019558 
total_CMD = 588197 
util_bw = 11504 
Wasted_Col = 10231 
Wasted_Row = 3243 
Idle = 563219 

BW Util Bottlenecks: 
RCDc_limit = 1959 
RCDWRc_limit = 1304 
WTRc_limit = 553 
RTWc_limit = 158 
CCDLc_limit = 7392 
rwq = 0 
CCDLc_limit_alone = 7297 
WTRc_limit_alone = 469 
RTWc_limit_alone = 147 

Commands details: 
total_CMD = 588197 
n_nop = 576084 
Read = 3392 
Write = 0 
L2_Alloc = 0 
L2_WB = 8112 
n_act = 403 
n_pre = 387 
n_ref = 0 
n_req = 6415 
total_req = 11504 

Dual Bus Interface Util: 
issued_total_row = 790 
issued_total_col = 11504 
Row_Bus_Util =  0.001343 
CoL_Bus_Util = 0.019558 
Either_Row_CoL_Bus_Util = 0.020593 
Issued_on_Two_Bus_Simul_Util = 0.000308 
issued_two_Eff = 0.014943 
queue_avg = 0.279046 


dram_util_bins: 0 0 0 0 0 0 0 0 0 0
dram_eff_bins: 0 0 0 0 0 0 0 0 0 0
mrqq: max=48 avg=0.279046

========= L2 cache stats =========
L2_cache_bank[0]: Access = 64157, Miss = 1696, Miss_rate = 0.026, Pending_hits = 0, Reservation_fails = 0
L2_cache_bank[1]: Access = 64186, Miss = 1696, Miss_rate = 0.026, Pending_hits = 0, Reservation_fails = 0
L2_cache_bank[2]: Access = 251261, Miss = 103139, Miss_rate = 0.410, Pending_hits = 0, Reservation_fails = 0
L2_cache_bank[3]: Access = 64130, Miss = 1696, Miss_rate = 0.026, Pending_hits = 0, Reservation_fails = 0
L2_cache_bank[4]: Access = 466721, Miss = 204584, Miss_rate = 0.438, Pending_hits = 0, Reservation_fails = 0
L2_cache_bank[5]: Access = 64254, Miss = 1696, Miss_rate = 0.026, Pending_hits = 0, Reservation_fails = 127
L2_cache_bank[6]: Access = 466591, Miss = 204586, Miss_rate = 0.438, Pending_hits = 0, Reservation_fails = 0
L2_cache_bank[7]: Access = 64399, Miss = 1696, Miss_rate = 0.026, Pending_hits = 0, Reservation_fails = 144
L2_cache_bank[8]: Access = 466732, Miss = 204585, Miss_rate = 0.438, Pending_hits = 0, Reservation_fails = 0
L2_cache_bank[9]: Access = 64462, Miss = 1696, Miss_rate = 0.026, Pending_hits = 0, Reservation_fails = 98
L2_cache_bank[10]: Access = 495193, Miss = 204586, Miss_rate = 0.413, Pending_hits = 0, Reservation_fails = 0
L2_cache_bank[11]: Access = 64379, Miss = 1696, Miss_rate = 0.026, Pending_hits = 0, Reservation_fails = 115
L2_cache_bank[12]: Access = 466829, Miss = 204586, Miss_rate = 0.438, Pending_hits = 0, Reservation_fails = 0
L2_cache_bank[13]: Access = 64417, Miss = 1696, Miss_rate = 0.026, Pending_hits = 1, Reservation_fails = 148
L2_cache_bank[14]: Access = 466916, Miss = 204588, Miss_rate = 0.438, Pending_hits = 0, Reservation_fails = 0
L2_cache_bank[15]: Access = 64567, Miss = 1696, Miss_rate = 0.026, Pending_hits = 0, Reservation_fails = 105
L2_cache_bank[16]: Access = 466686, Miss = 204587, Miss_rate = 0.438, Pending_hits = 0, Reservation_fails = 0
L2_cache_bank[17]: Access = 64576, Miss = 1696, Miss_rate = 0.026, Pending_hits = 0, Reservation_fails = 121
L2_cache_bank[18]: Access = 466615, Miss = 204586, Miss_rate = 0.438, Pending_hits = 0, Reservation_fails = 0
L2_cache_bank[19]: Access = 64368, Miss = 1696, Miss_rate = 0.026, Pending_hits = 0, Reservation_fails = 52
L2_cache_bank[20]: Access = 80341, Miss = 3416, Miss_rate = 0.043, Pending_hits = 0, Reservation_fails = 0
L2_cache_bank[21]: Access = 64025, Miss = 1696, Miss_rate = 0.026, Pending_hits = 0, Reservation_fails = 0
L2_cache_bank[22]: Access = 64410, Miss = 1828, Miss_rate = 0.028, Pending_hits = 1, Reservation_fails = 0
L2_cache_bank[23]: Access = 63792, Miss = 1696, Miss_rate = 0.027, Pending_hits = 0, Reservation_fails = 0
L2_cache_bank[24]: Access = 64396, Miss = 1827, Miss_rate = 0.028, Pending_hits = 0, Reservation_fails = 0
L2_cache_bank[25]: Access = 63652, Miss = 1696, Miss_rate = 0.027, Pending_hits = 0, Reservation_fails = 0
L2_cache_bank[26]: Access = 64439, Miss = 1826, Miss_rate = 0.028, Pending_hits = 0, Reservation_fails = 0
L2_cache_bank[27]: Access = 63589, Miss = 1696, Miss_rate = 0.027, Pending_hits = 0, Reservation_fails = 0
L2_cache_bank[28]: Access = 64481, Miss = 1826, Miss_rate = 0.028, Pending_hits = 0, Reservation_fails = 0
L2_cache_bank[29]: Access = 63674, Miss = 1696, Miss_rate = 0.027, Pending_hits = 0, Reservation_fails = 0
L2_cache_bank[30]: Access = 64434, Miss = 1819, Miss_rate = 0.028, Pending_hits = 0, Reservation_fails = 0
L2_cache_bank[31]: Access = 63565, Miss = 1696, Miss_rate = 0.027, Pending_hits = 0, Reservation_fails = 0
L2_cache_bank[32]: Access = 64422, Miss = 1818, Miss_rate = 0.028, Pending_hits = 0, Reservation_fails = 0
L2_cache_bank[33]: Access = 63550, Miss = 1696, Miss_rate = 0.027, Pending_hits = 0, Reservation_fails = 0
L2_cache_bank[34]: Access = 64454, Miss = 1819, Miss_rate = 0.028, Pending_hits = 0, Reservation_fails = 0
L2_cache_bank[35]: Access = 63649, Miss = 1696, Miss_rate = 0.027, Pending_hits = 0, Reservation_fails = 0
L2_cache_bank[36]: Access = 64304, Miss = 1821, Miss_rate = 0.028, Pending_hits = 0, Reservation_fails = 0
L2_cache_bank[37]: Access = 63580, Miss = 1696, Miss_rate = 0.027, Pending_hits = 0, Reservation_fails = 0
L2_cache_bank[38]: Access = 64230, Miss = 1818, Miss_rate = 0.028, Pending_hits = 0, Reservation_fails = 0
L2_cache_bank[39]: Access = 63652, Miss = 1696, Miss_rate = 0.027, Pending_hits = 0, Reservation_fails = 0
L2_cache_bank[40]: Access = 64321, Miss = 1828, Miss_rate = 0.028, Pending_hits = 0, Reservation_fails = 0
L2_cache_bank[41]: Access = 63703, Miss = 1696, Miss_rate = 0.027, Pending_hits = 0, Reservation_fails = 0
L2_cache_bank[42]: Access = 64454, Miss = 1830, Miss_rate = 0.028, Pending_hits = 0, Reservation_fails = 0
L2_cache_bank[43]: Access = 63382, Miss = 1696, Miss_rate = 0.027, Pending_hits = 0, Reservation_fails = 0
L2_cache_bank[44]: Access = 64684, Miss = 1833, Miss_rate = 0.028, Pending_hits = 0, Reservation_fails = 0
L2_cache_bank[45]: Access = 63361, Miss = 1696, Miss_rate = 0.027, Pending_hits = 0, Reservation_fails = 0
L2_cache_bank[46]: Access = 64826, Miss = 1832, Miss_rate = 0.028, Pending_hits = 0, Reservation_fails = 0
L2_cache_bank[47]: Access = 63398, Miss = 1696, Miss_rate = 0.027, Pending_hits = 0, Reservation_fails = 0
L2_cache_bank[48]: Access = 64968, Miss = 1830, Miss_rate = 0.028, Pending_hits = 0, Reservation_fails = 0
L2_cache_bank[49]: Access = 63378, Miss = 1696, Miss_rate = 0.027, Pending_hits = 0, Reservation_fails = 0
L2_cache_bank[50]: Access = 64967, Miss = 1832, Miss_rate = 0.028, Pending_hits = 0, Reservation_fails = 0
L2_cache_bank[51]: Access = 63506, Miss = 1696, Miss_rate = 0.027, Pending_hits = 0, Reservation_fails = 0
L2_cache_bank[52]: Access = 64521, Miss = 1730, Miss_rate = 0.027, Pending_hits = 0, Reservation_fails = 0
L2_cache_bank[53]: Access = 63445, Miss = 1696, Miss_rate = 0.027, Pending_hits = 0, Reservation_fails = 0
L2_cache_bank[54]: Access = 64312, Miss = 1696, Miss_rate = 0.026, Pending_hits = 0, Reservation_fails = 0
L2_cache_bank[55]: Access = 63458, Miss = 1696, Miss_rate = 0.027, Pending_hits = 0, Reservation_fails = 0
L2_cache_bank[56]: Access = 64383, Miss = 1696, Miss_rate = 0.026, Pending_hits = 0, Reservation_fails = 0
L2_cache_bank[57]: Access = 63588, Miss = 1696, Miss_rate = 0.027, Pending_hits = 0, Reservation_fails = 0
L2_cache_bank[58]: Access = 64250, Miss = 1696, Miss_rate = 0.026, Pending_hits = 0, Reservation_fails = 0
L2_cache_bank[59]: Access = 63628, Miss = 1696, Miss_rate = 0.027, Pending_hits = 0, Reservation_fails = 0
L2_cache_bank[60]: Access = 64330, Miss = 1696, Miss_rate = 0.026, Pending_hits = 0, Reservation_fails = 37
L2_cache_bank[61]: Access = 63772, Miss = 1696, Miss_rate = 0.027, Pending_hits = 0, Reservation_fails = 0
L2_cache_bank[62]: Access = 64145, Miss = 1696, Miss_rate = 0.026, Pending_hits = 0, Reservation_fails = 0
L2_cache_bank[63]: Access = 63925, Miss = 1696, Miss_rate = 0.027, Pending_hits = 0, Reservation_fails = 0
L2_total_cache_accesses = 7554783
L2_total_cache_misses = 1836808
L2_total_cache_miss_rate = 0.2431
L2_total_cache_pending_hits = 2
L2_total_cache_reservation_fails = 947
L2_total_cache_breakdown:
	L2_cache_stats_breakdown[GLOBAL_ACC_R][HIT] = 479328
	L2_cache_stats_breakdown[GLOBAL_ACC_R][HIT_RESERVED] = 2
	L2_cache_stats_breakdown[GLOBAL_ACC_R][MISS] = 27127
	L2_cache_stats_breakdown[GLOBAL_ACC_R][RESERVATION_FAIL] = 947
	L2_cache_stats_breakdown[GLOBAL_ACC_R][SECTOR_MISS] = 81378
	L2_cache_stats_breakdown[LOCAL_ACC_R][HIT] = 0
	L2_cache_stats_breakdown[LOCAL_ACC_R][HIT_RESERVED] = 0
	L2_cache_stats_breakdown[LOCAL_ACC_R][MISS] = 0
	L2_cache_stats_breakdown[LOCAL_ACC_R][RESERVATION_FAIL] = 0
	L2_cache_stats_breakdown[LOCAL_ACC_R][SECTOR_MISS] = 0
	L2_cache_stats_breakdown[CONST_ACC_R][HIT] = 0
	L2_cache_stats_breakdown[CONST_ACC_R][HIT_RESERVED] = 0
	L2_cache_stats_breakdown[CONST_ACC_R][MISS] = 0
	L2_cache_stats_breakdown[CONST_ACC_R][RESERVATION_FAIL] = 0
	L2_cache_stats_breakdown[CONST_ACC_R][SECTOR_MISS] = 0
	L2_cache_stats_breakdown[TEXTURE_ACC_R][HIT] = 60708
	L2_cache_stats_breakdown[TEXTURE_ACC_R][HIT_RESERVED] = 0
	L2_cache_stats_breakdown[TEXTURE_ACC_R][MISS] = 0
	L2_cache_stats_breakdown[TEXTURE_ACC_R][RESERVATION_FAIL] = 0
	L2_cache_stats_breakdown[TEXTURE_ACC_R][SECTOR_MISS] = 0
	L2_cache_stats_breakdown[GLOBAL_ACC_W][HIT] = 5177937
	L2_cache_stats_breakdown[GLOBAL_ACC_W][HIT_RESERVED] = 0
	L2_cache_stats_breakdown[GLOBAL_ACC_W][MISS] = 87
	L2_cache_stats_breakdown[GLOBAL_ACC_W][RESERVATION_FAIL] = 0
	L2_cache_stats_breakdown[GLOBAL_ACC_W][SECTOR_MISS] = 1728216
	L2_cache_stats_breakdown[LOCAL_ACC_W][HIT] = 0
	L2_cache_stats_breakdown[LOCAL_ACC_W][HIT_RESERVED] = 0
	L2_cache_stats_breakdown[LOCAL_ACC_W][MISS] = 0
	L2_cache_stats_breakdown[LOCAL_ACC_W][RESERVATION_FAIL] = 0
	L2_cache_stats_breakdown[LOCAL_ACC_W][SECTOR_MISS] = 0
	L2_cache_stats_breakdown[L1_WRBK_ACC][HIT] = 0
	L2_cache_stats_breakdown[L1_WRBK_ACC][HIT_RESERVED] = 0
	L2_cache_stats_breakdown[L1_WRBK_ACC][MISS] = 0
	L2_cache_stats_breakdown[L1_WRBK_ACC][RESERVATION_FAIL] = 0
	L2_cache_stats_breakdown[L1_WRBK_ACC][SECTOR_MISS] = 0
	L2_cache_stats_breakdown[L2_WRBK_ACC][HIT] = 0
	L2_cache_stats_breakdown[L2_WRBK_ACC][HIT_RESERVED] = 0
	L2_cache_stats_breakdown[L2_WRBK_ACC][MISS] = 0
	L2_cache_stats_breakdown[L2_WRBK_ACC][RESERVATION_FAIL] = 0
	L2_cache_stats_breakdown[L2_WRBK_ACC][SECTOR_MISS] = 0
	L2_cache_stats_breakdown[INST_ACC_R][HIT] = 0
	L2_cache_stats_breakdown[INST_ACC_R][HIT_RESERVED] = 0
	L2_cache_stats_breakdown[INST_ACC_R][MISS] = 0
	L2_cache_stats_breakdown[INST_ACC_R][RESERVATION_FAIL] = 0
	L2_cache_stats_breakdown[INST_ACC_R][SECTOR_MISS] = 0
	L2_cache_stats_breakdown[L1_WR_ALLOC_R][HIT] = 0
	L2_cache_stats_breakdown[L1_WR_ALLOC_R][HIT_RESERVED] = 0
	L2_cache_stats_breakdown[L1_WR_ALLOC_R][MISS] = 0
	L2_cache_stats_breakdown[L1_WR_ALLOC_R][RESERVATION_FAIL] = 0
	L2_cache_stats_breakdown[L1_WR_ALLOC_R][SECTOR_MISS] = 0
	L2_cache_stats_breakdown[L2_WR_ALLOC_R][HIT] = 0
	L2_cache_stats_breakdown[L2_WR_ALLOC_R][HIT_RESERVED] = 0
	L2_cache_stats_breakdown[L2_WR_ALLOC_R][MISS] = 0
	L2_cache_stats_breakdown[L2_WR_ALLOC_R][RESERVATION_FAIL] = 0
	L2_cache_stats_breakdown[L2_WR_ALLOC_R][SECTOR_MISS] = 0
	L2_cache_stats_breakdown[GLOBAL_ACC_R][TOTAL_ACCESS] = 587835
	L2_cache_stats_breakdown[TEXTURE_ACC_R][TOTAL_ACCESS] = 60708
	L2_cache_stats_breakdown[GLOBAL_ACC_W][TOTAL_ACCESS] = 6906240
L2_total_cache_reservation_fail_breakdown:
	L2_cache_stats_fail_breakdown[GLOBAL_ACC_R][MSHR_ENRTY_FAIL] = 947
L2_cache_data_port_util = 0.137
L2_cache_fill_port_util = 0.002

icnt_total_pkts_mem_to_simt=7554783
icnt_total_pkts_simt_to_mem=7509252
LD_mem_lat_dist  0 0 0 0 0 0 0 0 0 0 0 0 0 0 0 0 0 0 0 0 0 0 0 0 0 0 0
ST_mem_lat_dist  0 0 0 0 0 0 0 0 0 0 0 0 0 0 0 0 0 0 0 0 0 0 0 0 0 0 0
----------------------------Interconnect-DETAILS--------------------------------
Req_Network_injected_packets_num = 7509252
Req_Network_cycles = 783341
Req_Network_injected_packets_per_cycle =       9.5862 
Req_Network_conflicts_per_cycle =      54.8755
Req_Network_conflicts_per_cycle_util =      55.3697
Req_Bank_Level_Parallism =       9.6725
Req_Network_in_buffer_full_per_cycle =      57.4225
Req_Network_in_buffer_avg_util =     376.3274
Req_Network_out_buffer_full_per_cycle =       0.1919
Req_Network_out_buffer_avg_util =      12.7026

Reply_Network_injected_packets_num = 7554783
Reply_Network_cycles = 783341
Reply_Network_injected_packets_per_cycle =        9.6443
Reply_Network_conflicts_per_cycle =        4.8813
Reply_Network_conflicts_per_cycle_util =       4.9308
Reply_Bank_Level_Parallism =       9.7421
Reply_Network_in_buffer_full_per_cycle =       0.0000
Reply_Network_in_buffer_avg_util =       1.1420
Reply_Network_out_buffer_full_per_cycle =       0.0000
Reply_Network_out_buffer_avg_util =       0.1206
----------------------------END-of-Interconnect-DETAILS-------------------------


gpgpu_simulation_time = 0 days, 1 hrs, 33 min, 27 sec (5607 sec)
gpgpu_simulation_rate = 43627 (inst/sec)
gpgpu_simulation_rate = 139 (cycle/sec)
gpgpu_silicon_slowdown = 8143884x
GPGPU-Sim: synchronize waiting for inactive GPU simulation
GPGPU-Sim API: Stream Manager State
GPGPU-Sim: detected inactive GPU simulation thread
GPGPU-Sim: synchronize waiting for inactive GPU simulation
GPGPU-Sim API: Stream Manager State
GPGPU-Sim: detected inactive GPU simulation thread
GPGPU-Sim: synchronize waiting for inactive GPU simulation
GPGPU-Sim API: Stream Manager State
GPGPU-Sim: detected inactive GPU simulation thread
GPGPU-Sim: *** exit detected ***
