

        *** GPGPU-Sim Simulator Version 4.0.0  [build gpgpu-sim_git-commit-ffe0a1a00e984ecce9bf36e17ab94c4de0de8108_modified_0.0] ***


GPGPU-Sim PTX: simulation mode 0 (can change with PTX_SIM_MODE_FUNC environment variable:
               1=functional simulation only, 0=detailed performance simulator)
GPGPU-Sim PTX: overriding embedded ptx with ptx file (PTX_SIM_USE_PTX_FILE is set)
GPGPU-Sim: Configuration options:

-save_embedded_ptx                      0 # saves ptx files embedded in binary as <n>.ptx
-keep                                   0 # keep intermediate files created by GPGPU-Sim when interfacing with external programs
-gpgpu_ptx_save_converted_ptxplus                    0 # Saved converted ptxplus to a file
-gpgpu_occupancy_sm_number                   70 # The SM number to pass to ptxas when getting register usage for computing GPU occupancy. This parameter is required in the config.
-ptx_opcode_latency_int      4,13,4,5,145,21 # Opcode latencies for integers <ADD,MAX,MUL,MAD,DIV,SHFL>Default 1,1,19,25,145,32
-ptx_opcode_latency_fp          4,13,4,5,39 # Opcode latencies for single precision floating points <ADD,MAX,MUL,MAD,DIV>Default 1,1,1,1,30
-ptx_opcode_latency_dp         8,19,8,8,330 # Opcode latencies for double precision floating points <ADD,MAX,MUL,MAD,DIV>Default 8,8,8,8,335
-ptx_opcode_latency_sfu                  100 # Opcode latencies for SFU instructionsDefault 8
-ptx_opcode_latency_tesnor                   64 # Opcode latencies for Tensor instructionsDefault 64
-ptx_opcode_initiation_int          2,2,2,2,8,4 # Opcode initiation intervals for integers <ADD,MAX,MUL,MAD,DIV,SHFL>Default 1,1,4,4,32,4
-ptx_opcode_initiation_fp            2,2,2,2,4 # Opcode initiation intervals for single precision floating points <ADD,MAX,MUL,MAD,DIV>Default 1,1,1,1,5
-ptx_opcode_initiation_dp          4,4,4,4,130 # Opcode initiation intervals for double precision floating points <ADD,MAX,MUL,MAD,DIV>Default 8,8,8,8,130
-ptx_opcode_initiation_sfu                    8 # Opcode initiation intervals for sfu instructionsDefault 8
-ptx_opcode_initiation_tensor                   64 # Opcode initiation intervals for tensor instructionsDefault 64
-cdp_latency         7200,8000,100,12000,1600 # CDP API latency <cudaStreamCreateWithFlags, cudaGetParameterBufferV2_init_perWarp, cudaGetParameterBufferV2_perKernel, cudaLaunchDeviceV2_init_perWarp, cudaLaunchDevicV2_perKernel>Default 7200,8000,100,12000,1600
-network_mode                           2 # Interconnection network mode
-inter_config_file                   mesh # Interconnection network config file
-icnt_in_buffer_limit                  512 # in_buffer_limit
-icnt_out_buffer_limit                  512 # out_buffer_limit
-icnt_subnets                           2 # subnets
-icnt_arbiter_algo                      1 # arbiter_algo
-icnt_verbose                           0 # inct_verbose
-icnt_grant_cycles                      1 # grant_cycles
-gpgpu_ptx_use_cuobjdump                    1 # Use cuobjdump to extract ptx and sass from binaries
-gpgpu_experimental_lib_support                    0 # Try to extract code from cuda libraries [Broken because of unknown cudaGetExportTable]
-checkpoint_option                      0 #  checkpointing flag (0 = no checkpoint)
-checkpoint_kernel                      1 #  checkpointing during execution of which kernel (1- 1st kernel)
-checkpoint_CTA                         0 #  checkpointing after # of CTA (< less than total CTA)
-resume_option                          0 #  resume flag (0 = no resume)
-resume_kernel                          0 #  Resume from which kernel (1= 1st kernel)
-resume_CTA                             0 #  resume from which CTA 
-checkpoint_CTA_t                       0 #  resume from which CTA 
-checkpoint_insn_Y                      0 #  resume from which CTA 
-gpgpu_ptx_convert_to_ptxplus                    0 # Convert SASS (native ISA) to ptxplus and run ptxplus
-gpgpu_ptx_force_max_capability                   70 # Force maximum compute capability
-gpgpu_ptx_inst_debug_to_file                    0 # Dump executed instructions' debug information to file
-gpgpu_ptx_inst_debug_file       inst_debug.txt # Executed instructions' debug output file
-gpgpu_ptx_inst_debug_thread_uid                    1 # Thread UID for executed instructions' debug output
-gpgpu_n_mem_for_l2wb_pcommit                   32 # number of memory modules (e.g. memory controllers) in gpu
-gpgpu_n_sub_partition_per_mchannel_for_l2wb_pcommit                    2 # number of memory subpartition in each memory module
-gpgpu_dl2_bsize_for_l2wb_pcommit                  128 # default 128 bytes
-gpgpu_simd_model                       1 # 1 = post-dominator
-gpgpu_shader_core_pipeline              2048:32 # shader core pipeline config, i.e., {<nthread>:<warpsize>}
-gpgpu_tex_cache:l1  N:4:128:256,L:R:m:N:L,T:512:8,128:2 # per-shader L1 texture cache  (READ-ONLY) config  {<nsets>:<bsize>:<assoc>,<rep>:<wr>:<alloc>:<wr_alloc>,<mshr>:<N>:<merge>,<mq>:<rf>}
-gpgpu_const_cache:l1 N:128:64:8,L:R:f:N:L,S:2:64,4 # per-shader L1 constant memory cache  (READ-ONLY) config  {<nsets>:<bsize>:<assoc>,<rep>:<wr>:<alloc>:<wr_alloc>,<mshr>:<N>:<merge>,<mq>} 
-gpgpu_cache:il1     N:64:128:16,L:R:f:N:L,S:2:48,4 # shader L1 instruction cache config  {<nsets>:<bsize>:<assoc>,<rep>:<wr>:<alloc>:<wr_alloc>,<mshr>:<N>:<merge>,<mq>} 
-gpgpu_cache:dl1     S:1:128:256,L:L:s:N:L,A:256:8,16:0,32 # per-shader L1 data cache config  {<nsets>:<bsize>:<assoc>,<rep>:<wr>:<alloc>:<wr_alloc>,<mshr>:<N>:<merge>,<mq> | none}
-gpgpu_l1_banks                         4 # The number of L1 cache banks
-gpgpu_l1_banks_byte_interleaving                   32 # l1 banks byte interleaving granularity
-gpgpu_l1_banks_hashing_function                    0 # l1 banks hashing function
-gpgpu_l1_latency                      20 # L1 Hit Latency
-gpgpu_smem_latency                    20 # smem Latency
-gpgpu_cache:dl1PrefL1                 none # per-shader L1 data cache config  {<nsets>:<bsize>:<assoc>,<rep>:<wr>:<alloc>:<wr_alloc>,<mshr>:<N>:<merge>,<mq> | none}
-gpgpu_cache:dl1PrefShared                 none # per-shader L1 data cache config  {<nsets>:<bsize>:<assoc>,<rep>:<wr>:<alloc>:<wr_alloc>,<mshr>:<N>:<merge>,<mq> | none}
-gpgpu_gmem_skip_L1D                    0 # global memory access skip L1D cache (implements -Xptxas -dlcm=cg, default=no skip)
-gpgpu_perfect_mem                      0 # enable perfect memory mode (no cache miss)
-n_regfile_gating_group                    4 # group of lanes that should be read/written together)
-gpgpu_clock_gated_reg_file                    0 # enable clock gated reg file for power calculations
-gpgpu_clock_gated_lanes                    0 # enable clock gated lanes for power calculations
-gpgpu_shader_registers                65536 # Number of registers per shader core. Limits number of concurrent CTAs. (default 8192)
-gpgpu_registers_per_block                65536 # Maximum number of registers per CTA. (default 8192)
-gpgpu_ignore_resources_limitation                    0 # gpgpu_ignore_resources_limitation (default 0)
-gpgpu_shader_cta                      32 # Maximum number of concurrent CTAs in shader (default 8)
-gpgpu_num_cta_barriers                   16 # Maximum number of named barriers per CTA (default 16)
-gpgpu_n_clusters                      80 # number of processing clusters
-gpgpu_n_cores_per_cluster                    1 # number of simd cores per cluster
-gpgpu_n_cluster_ejection_buffer_size                   32 # number of packets in ejection buffer
-gpgpu_n_ldst_response_buffer_size                    2 # number of response packets in ld/st unit ejection buffer
-gpgpu_shmem_per_block                65536 # Size of shared memory per thread block or CTA (default 48kB)
-gpgpu_shmem_size                   98304 # Size of shared memory per shader core (default 16kB)
-gpgpu_adaptive_cache_config            536870913 # adaptive_cache_config
-gpgpu_shmem_sizeDefault                98304 # Size of shared memory per shader core (default 16kB)
-gpgpu_shmem_size_PrefL1                16384 # Size of shared memory per shader core (default 16kB)
-gpgpu_shmem_size_PrefShared                16384 # Size of shared memory per shader core (default 16kB)
-gpgpu_shmem_num_banks                   32 # Number of banks in the shared memory in each shader core (default 16)
-gpgpu_shmem_limited_broadcast                    0 # Limit shared memory to do one broadcast per cycle (default on)
-gpgpu_shmem_warp_parts                    1 # Number of portions a warp is divided into for shared memory bank conflict check 
-gpgpu_mem_unit_ports                    1 # The number of memory transactions allowed per core cycle
-gpgpu_shmem_warp_parts                    1 # Number of portions a warp is divided into for shared memory bank conflict check 
-gpgpu_warpdistro_shader                   -1 # Specify which shader core to collect the warp size distribution from
-gpgpu_warp_issue_shader                    0 # Specify which shader core to collect the warp issue distribution from
-gpgpu_local_mem_map                    1 # Mapping from local memory space address to simulated GPU physical address space (default = enabled)
-gpgpu_num_reg_banks                   16 # Number of register banks (default = 8)
-gpgpu_reg_bank_use_warp_id                    0 # Use warp ID in mapping registers to banks (default = off)
-gpgpu_sub_core_model                    1 # Sub Core Volta/Pascal model (default = off)
-gpgpu_enable_specialized_operand_collector                    0 # enable_specialized_operand_collector
-gpgpu_operand_collector_num_units_sp                    4 # number of collector units (default = 4)
-gpgpu_operand_collector_num_units_dp                    0 # number of collector units (default = 0)
-gpgpu_operand_collector_num_units_sfu                    4 # number of collector units (default = 4)
-gpgpu_operand_collector_num_units_int                    0 # number of collector units (default = 0)
-gpgpu_operand_collector_num_units_tensor_core                    4 # number of collector units (default = 4)
-gpgpu_operand_collector_num_units_mem                    2 # number of collector units (default = 2)
-gpgpu_operand_collector_num_units_gen                    8 # number of collector units (default = 0)
-gpgpu_operand_collector_num_in_ports_sp                    1 # number of collector unit in ports (default = 1)
-gpgpu_operand_collector_num_in_ports_dp                    0 # number of collector unit in ports (default = 0)
-gpgpu_operand_collector_num_in_ports_sfu                    1 # number of collector unit in ports (default = 1)
-gpgpu_operand_collector_num_in_ports_int                    0 # number of collector unit in ports (default = 0)
-gpgpu_operand_collector_num_in_ports_tensor_core                    1 # number of collector unit in ports (default = 1)
-gpgpu_operand_collector_num_in_ports_mem                    1 # number of collector unit in ports (default = 1)
-gpgpu_operand_collector_num_in_ports_gen                    8 # number of collector unit in ports (default = 0)
-gpgpu_operand_collector_num_out_ports_sp                    1 # number of collector unit in ports (default = 1)
-gpgpu_operand_collector_num_out_ports_dp                    0 # number of collector unit in ports (default = 0)
-gpgpu_operand_collector_num_out_ports_sfu                    1 # number of collector unit in ports (default = 1)
-gpgpu_operand_collector_num_out_ports_int                    0 # number of collector unit in ports (default = 0)
-gpgpu_operand_collector_num_out_ports_tensor_core                    1 # number of collector unit in ports (default = 1)
-gpgpu_operand_collector_num_out_ports_mem                    1 # number of collector unit in ports (default = 1)
-gpgpu_operand_collector_num_out_ports_gen                    8 # number of collector unit in ports (default = 0)
-gpgpu_coalesce_arch                   60 # Coalescing arch (GT200 = 13, Fermi = 20)
-gpgpu_num_sched_per_core                    4 # Number of warp schedulers per core
-gpgpu_max_insn_issue_per_warp                    1 # Max number of instructions that can be issued per warp in one cycle by scheduler (either 1 or 2)
-gpgpu_dual_issue_diff_exec_units                    1 # should dual issue use two different execution unit resources (Default = 1)
-gpgpu_simt_core_sim_order                    1 # Select the simulation order of cores in a cluster (0=Fix, 1=Round-Robin)
-gpgpu_pipeline_widths 4,4,4,4,4,4,4,4,4,4,8,4,4 # Pipeline widths ID_OC_SP,ID_OC_DP,ID_OC_INT,ID_OC_SFU,ID_OC_MEM,OC_EX_SP,OC_EX_DP,OC_EX_INT,OC_EX_SFU,OC_EX_MEM,EX_WB,ID_OC_TENSOR_CORE,OC_EX_TENSOR_CORE
-gpgpu_tensor_core_avail                    1 # Tensor Core Available (default=0)
-gpgpu_num_sp_units                     4 # Number of SP units (default=1)
-gpgpu_num_dp_units                     4 # Number of DP units (default=0)
-gpgpu_num_int_units                    4 # Number of INT units (default=0)
-gpgpu_num_sfu_units                    4 # Number of SF units (default=1)
-gpgpu_num_tensor_core_units                    4 # Number of tensor_core units (default=1)
-gpgpu_num_mem_units                    1 # Number if ldst units (default=1) WARNING: not hooked up to anything
-gpgpu_scheduler                      gto # Scheduler configuration: < lrr | gto | two_level_active > If two_level_active:<num_active_warps>:<inner_prioritization>:<outer_prioritization>For complete list of prioritization values see shader.h enum scheduler_prioritization_typeDefault: gto
-gpgpu_concurrent_kernel_sm                    0 # Support concurrent kernels on a SM (default = disabled)
-gpgpu_perfect_inst_const_cache                    1 # perfect inst and const cache mode, so all inst and const hits in the cache(default = disabled)
-gpgpu_inst_fetch_throughput                    4 # the number of fetched intruction per warp each cycle
-gpgpu_reg_file_port_throughput                    2 # the number ports of the register file
-specialized_unit_1         0,4,4,4,4,BRA # specialized unit config {<enabled>,<num_units>:<latency>:<initiation>,<ID_OC_SPEC>:<OC_EX_SPEC>,<NAME>}
-specialized_unit_2         0,4,4,4,4,BRA # specialized unit config {<enabled>,<num_units>:<latency>:<initiation>,<ID_OC_SPEC>:<OC_EX_SPEC>,<NAME>}
-specialized_unit_3         0,4,4,4,4,BRA # specialized unit config {<enabled>,<num_units>:<latency>:<initiation>,<ID_OC_SPEC>:<OC_EX_SPEC>,<NAME>}
-specialized_unit_4         0,4,4,4,4,BRA # specialized unit config {<enabled>,<num_units>:<latency>:<initiation>,<ID_OC_SPEC>:<OC_EX_SPEC>,<NAME>}
-specialized_unit_5         0,4,4,4,4,BRA # specialized unit config {<enabled>,<num_units>:<latency>:<initiation>,<ID_OC_SPEC>:<OC_EX_SPEC>,<NAME>}
-specialized_unit_6         0,4,4,4,4,BRA # specialized unit config {<enabled>,<num_units>:<latency>:<initiation>,<ID_OC_SPEC>:<OC_EX_SPEC>,<NAME>}
-specialized_unit_7         0,4,4,4,4,BRA # specialized unit config {<enabled>,<num_units>:<latency>:<initiation>,<ID_OC_SPEC>:<OC_EX_SPEC>,<NAME>}
-specialized_unit_8         0,4,4,4,4,BRA # specialized unit config {<enabled>,<num_units>:<latency>:<initiation>,<ID_OC_SPEC>:<OC_EX_SPEC>,<NAME>}
-gpgpu_perf_sim_memcpy                    1 # Fill the L2 cache on memcpy
-gpgpu_simple_dram_model                    0 # simple_dram_model with fixed latency and BW
-gpgpu_dram_scheduler                    1 # 0 = fifo, 1 = FR-FCFS (defaul)
-gpgpu_dram_partition_queues          64:64:64:64 # i2$:$2d:d2$:$2i
-l2_ideal                               0 # Use a ideal L2 cache that always hit
-gpgpu_cache:dl2     S:32:128:24,L:B:m:L:P,A:192:4,32:0,32 # unified banked L2 data cache config  {<nsets>:<bsize>:<assoc>,<rep>:<wr>:<alloc>:<wr_alloc>,<mshr>:<N>:<merge>,<mq>}
-gpgpu_cache:dl2_texture_only                    0 # L2 cache used for texture only
-gpgpu_n_mem                           32 # number of memory modules (e.g. memory controllers) in gpu
-gpgpu_n_sub_partition_per_mchannel                    2 # number of memory subpartition in each memory module
-gpgpu_n_mem_per_ctrlr                    1 # number of memory chips per memory controller
-gpgpu_memlatency_stat                   14 # track and display latency statistics 0x2 enables MC, 0x4 enables queue logs
-gpgpu_frfcfs_dram_sched_queue_size                   64 # 0 = unlimited (default); # entries per chip
-gpgpu_dram_return_queue_size                  192 # 0 = unlimited (default); # entries per chip
-gpgpu_dram_buswidth                   16 # default = 4 bytes (8 bytes per cycle at DDR)
-gpgpu_dram_burst_length                    2 # Burst length of each DRAM request (default = 4 data bus cycle)
-dram_data_command_freq_ratio                    2 # Frequency ratio between DRAM data bus and command bus (default = 2 times, i.e. DDR)
-gpgpu_dram_timing_opt nbk=16:CCD=1:RRD=3:RCD=12:RAS=28:RP=12:RC=40: CL=12:WL=2:CDLR=3:WR=10:nbkgrp=4:CCDL=2:RTPL=3 # DRAM timing parameters = {nbk:tCCD:tRRD:tRCD:tRAS:tRP:tRC:CL:WL:tCDLR:tWR:nbkgrp:tCCDL:tRTPL}
-gpgpu_l2_rop_latency                  160 # ROP queue latency (default 85)
-dram_latency                         200 # DRAM latency (default 30)
-dram_write_latency                   600 # DRAM write latency (default 100)
-dram_dual_bus_interface                    1 # dual_bus_interface (default = 0) 
-dram_bnk_indexing_policy                    0 # dram_bnk_indexing_policy (0 = normal indexing, 1 = Xoring with the higher bits) (Default = 0)
-dram_bnkgrp_indexing_policy                    1 # dram_bnkgrp_indexing_policy (0 = take higher bits, 1 = take lower bits) (Default = 0)
-dram_seperate_write_queue_enable                    0 # Seperate_Write_Queue_Enable
-dram_write_queue_size             32:28:16 # Write_Queue_Size
-dram_elimnate_rw_turnaround                    0 # elimnate_rw_turnaround i.e set tWTR and tRTW = 0
-icnt_flit_size                        40 # icnt_flit_size
-gpgpu_mem_addr_mapping dramid@8;00000000.00000000.00000000.00000000.0000RRRR.RRRRRRRR.RBBBCCCB.CCCSSSSS # mapping memory address to dram model {dramid@<start bit>;<memory address map>}
-gpgpu_mem_addr_test                    0 # run sweep test to check address mapping for aliased address
-gpgpu_mem_address_mask                    1 # 0 = old addressing mask, 1 = new addressing mask, 2 = new add. mask + flipped bank sel and chip sel bits
-gpgpu_memory_partition_indexing                    0 # 0 = no indexing, 1 = bitwise xoring, 2 = IPoly, 3 = custom indexing
-gpuwattch_xml_file         gpuwattch.xml # GPUWattch XML file
-power_simulation_enabled                    0 # Turn on power simulator (1=On, 0=Off)
-power_per_cycle_dump                    0 # Dump detailed power output each cycle
-power_trace_enabled                    0 # produce a file for the power trace (1=On, 0=Off)
-power_trace_zlevel                     6 # Compression level of the power trace output log (0=no comp, 9=highest)
-steady_power_levels_enabled                    0 # produce a file for the steady power levels (1=On, 0=Off)
-steady_state_definition                  8:4 # allowed deviation:number of samples
-gpgpu_max_cycle                        0 # terminates gpu simulation early (0 = no limit)
-gpgpu_max_insn                         0 # terminates gpu simulation early (0 = no limit)
-gpgpu_max_cta                          0 # terminates gpu simulation early (0 = no limit)
-gpgpu_max_completed_cta                    0 # terminates gpu simulation early (0 = no limit)
-gpgpu_runtime_stat                   500 # display runtime statistics such as dram utilization {<freq>:<flag>}
-liveness_message_freq                    1 # Minimum number of seconds between simulation liveness messages (0 = always print)
-gpgpu_compute_capability_major                    7 # Major compute capability version number
-gpgpu_compute_capability_minor                    0 # Minor compute capability version number
-gpgpu_flush_l1_cache                    1 # Flush L1 cache at the end of each kernel call
-gpgpu_flush_l2_cache                    0 # Flush L2 cache at the end of each kernel call
-gpgpu_deadlock_detect                    1 # Stop the simulation at deadlock (1=on (default), 0=off)
-gpgpu_ptx_instruction_classification                    0 # if enabled will classify ptx instruction types per kernel (Max 255 kernels now)
-gpgpu_ptx_sim_mode                     0 # Select between Performance (default) or Functional simulation (1)
-gpgpu_clock_domains 1132.0:1132.0:1132.0:850.0 # Clock Domain Frequencies in MhZ {<Core Clock>:<ICNT Clock>:<L2 Clock>:<DRAM Clock>}
-gpgpu_max_concurrent_kernel                    8 # maximum kernels that can run concurrently on GPU
-gpgpu_cflog_interval                    0 # Interval between each snapshot in control flow logger
-visualizer_enabled               3acf4816f28a61137a29f806736c3982  /home/pli11/Videos/parboil_benchmark/parboil/benchmarks/sad/build/nvm_default/sad
Extracting PTX file and ptxas options    1: sad.1.sm_70.ptx -arch=sm_70
Extracting PTX file and ptxas options    2: sad.2.sm_70.ptx -arch=sm_70
Extracting PTX file and ptxas options    3: sad.3.sm_70.ptx -arch=sm_70
      0 # Turn on visualizer output (1=On, 0=Off)
-visualizer_outputfile                 NULL # Specifies the output log file for visualizer
-visualizer_zlevel                      6 # Compression level of the visualizer output log (0=no comp, 9=highest)
-gpgpu_stack_size_limit                 1024 # GPU thread stack size
-gpgpu_heap_size_limit              8388608 # GPU malloc heap size 
-gpgpu_runtime_sync_depth_limit                    2 # GPU device runtime synchronize depth
-gpgpu_runtime_pending_launch_count_limit                 2048 # GPU device runtime pending launch count
-trace_enabled                          0 # Turn on traces
-trace_components                    none # comma seperated list of traces to enable. Complete list found in trace_streams.tup. Default none
-trace_sampling_core                    0 # The core which is printed using CORE_DPRINTF. Default 0
-trace_sampling_memory_partition                   -1 # The memory partition which is printed using MEMPART_DPRINTF. Default -1 (i.e. all)
-enable_ptx_file_line_stats                    1 # Turn on PTX source line statistic profiling. (1 = On)
-ptx_line_stats_filename gpgpu_inst_stats.txt # Output file for PTX source line statistics.
-gpgpu_kernel_launch_latency                 5000 # Kernel launch latency in cycles. Default: 0
-gpgpu_cdp_enabled                      0 # Turn on CDP
-gpgpu_TB_launch_latency                    0 # thread block launch latency in cycles. Default: 0
DRAM Timing Options:
nbk                                    16 # number of banks
CCD                                     1 # column to column delay
RRD                                     3 # minimal delay between activation of rows in different banks
RCD                                    12 # row to column delay
RAS                                    28 # time needed to activate row
RP                                     12 # time needed to precharge (deactivate) row
RC                                     40 # row cycle time
CDLR                                    3 # switching from write to read (changes tWTR)
WR                                     10 # last data-in to row precharge
CL                                     12 # CAS latency
WL                                      2 # Write latency
nbkgrp                                  4 # number of bank groups
CCDL                                    2 # column to column delay between accesses to different bank groups
RTPL                                    3 # read to precharge delay between accesses to different bank groups
Total number of memory sub partition = 64
addr_dec_mask[CHIP]  = 0000000000001f00 	high:13 low:8
addr_dec_mask[BK]    = 00000000000e2000 	high:20 low:13
addr_dec_mask[ROW]   = 00000001fff00000 	high:33 low:20
addr_dec_mask[COL]   = 000000000001c0ff 	high:17 low:0
addr_dec_mask[BURST] = 000000000000001f 	high:5 low:0
sub_partition_id_mask = 0000000000002000
GPGPU-Sim uArch: clock freqs: 1132000000.000000:1132000000.000000:1132000000.000000:850000000.000000
GPGPU-Sim uArch: clock periods: 0.00000000088339222615:0.00000000088339222615:0.00000000088339222615:0.00000000117647058824
*** Initializing Memory Statistics ***
GPGPU-Sim uArch: performance model initialization complete.
self exe links to: /home/pli11/Videos/parboil_benchmark/parboil/benchmarks/sad/build/nvm_default/sad
self exe links to: /home/pli11/Videos/parboil_benchmark/parboil/benchmarks/sad/build/nvm_default/sad
10.1
GPGPU-Sim PTX: __cudaRegisterFatBinary, fat_cubin_handle = 1, filename=default
self exe links to: /home/pli11/Videos/parboil_benchmark/parboil/benchmarks/sad/build/nvm_default/sad
Running md5sum using "md5sum /home/pli11/Videos/parboil_benchmark/parboil/benchmarks/sad/build/nvm_default/sad "
self exe links to: /home/pli11/Videos/parboil_benchmark/parboil/benchmarks/sad/build/nvm_default/sad
Extracting specific PTX file named sad.1.sm_70.ptx 
Extracting specific PTX file named sad.2.sm_70.ptx 
Extracting specific PTX file named sad.3.sm_70.ptx 
GPGPU-Sim PTX: __cudaRegisterFunction _Z16mb_sad_calc_nvmdPtS_ii : hostFun 0x0x403136, fat_cubin_handle = 1
GPGPU-Sim PTX: Parsing sad.1.sm_70.ptx
GPGPU-Sim PTX: allocating global region for "ref" from 0x100 to 0x104 (global memory space)
GPGPU-Sim PTX: allocating global region for "NVM_log" from 0x180 to 0x2000180 (global memory space)
GPGPU-Sim PTX: allocating global region for "NVM_flag" from 0x2000180 to 0x2400180 (global memory space)
GPGPU-Sim PTX: instruction assembly for function '_Z16mb_sad_calc_nvmoPtS_ii'...   done.
GPGPU-Sim PTX: instruction assembly for function '_Z16mb_sad_calc_nvmuPtS_ii'...   done.
GPGPU-Sim PTX: instruction assembly for function '_Z16mb_sad_calc_nvmqPtS_ii'...   done.
GPGPU-Sim PTX: instruction assembly for function '_Z16mb_sad_calc_nvmwPtS_ii'...   done.
GPGPU-Sim PTX: instruction assembly for function '_Z16mb_sad_calc_nvm1PtS_ii'...   done.
GPGPU-Sim PTX: instruction assembly for function '_Z16mb_sad_calc_nvm2PtS_ii'...   done.
GPGPU-Sim PTX: instruction assembly for function '_Z16mb_sad_calc_nvmjPtS_ii'...   done.
GPGPU-Sim PTX: instruction assembly for function '_Z16mb_sad_calc_nvmlPtS_ii'...   done.
GPGPU-Sim PTX: instruction assembly for function '_Z16mb_sad_calc_nvmgPtS_ii'...   done.
GPGPU-Sim PTX: instruction assembly for function '_Z16mb_sad_calc_nvm3PtS_ii'...   done.
GPGPU-Sim PTX: instruction assembly for function '_Z16mb_sad_calc_nvm4PtS_ii'...   done.
GPGPU-Sim PTX: instruction assembly for function '_Z16mb_sad_calc_nvmiPtS_ii'...   done.
GPGPU-Sim PTX: instruction assembly for function '_Z16mb_sad_calc_nvm6PtS_ii'...   done.
GPGPU-Sim PTX: instruction assembly for function '_Z16mb_sad_calc_nvm5PtS_ii'...   done.
GPGPU-Sim PTX: instruction assembly for function '_Z11mb_sad_calcPtS_ii'...   done.
GPGPU-Sim PTX: instruction assembly for function '_Z16mb_sad_calc_nvmbPtS_ii'...   done.
GPGPU-Sim PTX: instruction assembly for function '_Z16mb_sad_calc_nvmdPtS_ii'...   done.
GPGPU-Sim PTX: finished parsing EMBEDDED .ptx file sad.1.sm_70.ptx
GPGPU-Sim PTX: Parsing sad.2.sm_70.ptx
GPGPU-Sim PTX: instruction assembly for function '_Z17larger_sad_calc_8Ptii'...   done.
GPGPU-Sim PTX: instruction assembly for function '_Z22larger_sad_calc_8_nvmoPtii'...   done.
GPGPU-Sim PTX: instruction assembly for function '_Z22larger_sad_calc_8_nvmuPtii'...   done.
GPGPU-Sim PTX: instruction assembly for function '_Z22larger_sad_calc_8_nvmbPtii'...   done.
GPGPU-Sim PTX: instruction assembly for function '_Z18larger_sad_calc_16Ptii'...   done.
GPGPU-Sim PTX: finished parsing EMBEDDED .ptx file sad.2.sm_70.ptx
GPGPU-Sim PTX: Parsing sad.3.sm_70.ptx
GPGPU-Sim PTX: instruction assembly for function '_Z11kernel_l2wbv'...   done.
GPGPU-Sim PTX: instruction assembly for function '_Z15kernel_l2wb_pctv'...   done.
GPGPU-Sim PTX: finished parsing EMBEDDED .ptx file sad.3.sm_70.ptx
GPGPU-Sim PTX: loading globals with explicit initializers... 
GPGPU-Sim PTX: finished loading globals (0 bytes total).
GPGPU-Sim PTX: loading constants with explicit initializers...  done.
GPGPU-Sim PTX: Loading PTXInfo from sad.1.sm_70.ptx
GPGPU-Sim PTX: Kernel '_Z16mb_sad_calc_nvmdPtS_ii' : regs=48, lmem=0, smem=0, cmem=380
GPGPU-Sim PTX: Kernel '_Z16mb_sad_calc_nvmbPtS_ii' : regs=48, lmem=0, smem=0, cmem=380
GPGPU-Sim PTX: Kernel '_Z11mb_sad_calcPtS_ii' : regs=48, lmem=0, smem=0, cmem=380
GPGPU-Sim PTX: Kernel '_Z16mb_sad_calc_nvm5PtS_ii' : regs=64, lmem=0, smem=0, cmem=380
GPGPU-Sim PTX: Kernel '_Z16mb_sad_calc_nvm6PtS_ii' : regs=64, lmem=0, smem=0, cmem=380
GPGPU-Sim PTX: Kernel '_Z16mb_sad_calc_nvmiPtS_ii' : regs=56, lmem=0, smem=0, cmem=380
GPGPU-Sim PTX: Kernel '_Z16mb_sad_calc_nvm4PtS_ii' : regs=56, lmem=0, smem=0, cmem=380
GPGPU-Sim PTX: Kernel '_Z16mb_sad_calc_nvm3PtS_ii' : regs=56, lmem=0, smem=0, cmem=380
GPGPU-Sim PTX: Kernel '_Z16mb_sad_calc_nvmgPtS_ii' : regs=56, lmem=0, smem=0, cmem=380
GPGPU-Sim PTX: Kernel '_Z16mb_sad_calc_nvmlPtS_ii' : regs=48, lmem=0, smem=0, cmem=380
GPGPU-Sim PTX: Kernel '_Z16mb_sad_calc_nvmjPtS_ii' : regs=48, lmem=0, smem=0, cmem=380
GPGPU-Sim PTX: Kernel '_Z16mb_sad_calc_nvm2PtS_ii' : regs=48, lmem=0, smem=0, cmem=380
GPGPU-Sim PTX: Kernel '_Z16mb_sad_calc_nvm1PtS_ii' : regs=48, lmem=0, smem=0, cmem=380
GPGPU-Sim PTX: Kernel '_Z16mb_sad_calc_nvmwPtS_ii' : regs=56, lmem=0, smem=0, cmem=380
GPGPU-Sim PTX: Kernel '_Z16mb_sad_calc_nvmqPtS_ii' : regs=56, lmem=0, smem=0, cmem=380
GPGPU-Sim PTX: Kernel '_Z16mb_sad_calc_nvmuPtS_ii' : regs=56, lmem=0, smem=0, cmem=380
GPGPU-Sim PTX: Kernel '_Z16mb_sad_calc_nvmoPtS_ii' : regs=56, lmem=0, smem=0, cmem=380
GPGPU-Sim PTX: Loading PTXInfo from sad.2.sm_70.ptx
GPGPU-Sim PTX: Kernel '_Z18larger_sad_calc_16Ptii' : regs=32, lmem=0, smem=0, cmem=368
GPGPU-Sim PTX: Kernel '_Z22larger_sad_calc_8_nvmbPtii' : regs=32, lmem=0, smem=0, cmem=368
GPGPU-Sim PTX: Kernel '_Z22larger_sad_calc_8_nvmuPtii' : regs=32, lmem=0, smem=0, cmem=368
GPGPU-Sim PTX: Kernel '_Z22larger_sad_calc_8_nvmoPtii' : regs=32, lmem=0, smem=0, cmem=368
GPGPU-Sim PTX: Kernel '_Z17larger_sad_calc_8Ptii' : regs=32, lmem=0, smem=0, cmem=368
GPGPU-Sim PTX: Loading PTXInfo from sad.3.sm_70.ptx
GPGPU-Sim PTX: Kernel '_Z15kernel_l2wb_pctv' : regs=8, lmem=0, smem=0, cmem=352
GPGPU-Sim PTX: Kernel '_Z11kernel_l2wbv' : regs=8, lmem=0, smem=0, cmem=352
GPGPU-Sim PTX: __cudaRegisterFunction _Z16mb_sad_calc_nvmbPtS_ii : hostFun 0x0x402fc3, fat_cubin_handle = 1
GPGPU-Sim PTX: __cudaRegisterFunction _Z11mb_sad_calcPtS_ii : hostFun 0x0x402e50, fat_cubin_handle = 1
GPGPU-Sim PTX: __cudaRegisterFunction _Z16mb_sad_calc_nvm5PtS_ii : hostFun 0x0x402cdd, fat_cubin_handle = 1
GPGPU-Sim PTX: __cudaRegisterFunction _Z16mb_sad_calc_nvm6PtS_ii : hostFun 0x0x402b6a, fat_cubin_handle = 1
GPGPU-Sim PTX: __cudaRegisterFunction _Z16mb_sad_calc_nvmiPtS_ii : hostFun 0x0x4029f7, fat_cubin_handle = 1
GPGPU-Sim PTX: __cudaRegisterFunction _Z16mb_sad_calc_nvm4PtS_ii : hostFun 0x0x402884, fat_cubin_handle = 1
GPGPU-Sim PTX: __cudaRegisterFunction _Z16mb_sad_calc_nvm3PtS_ii : hostFun 0x0x402711, fat_cubin_handle = 1
GPGPU-Sim PTX: __cudaRegisterFunction _Z16mb_sad_calc_nvmgPtS_ii : hostFun 0x0x40259e, fat_cubin_handle = 1
GPGPU-Sim PTX: __cudaRegisterFunction _Z16mb_sad_calc_nvmlPtS_ii : hostFun 0x0x40242b, fat_cubin_handle = 1
GPGPU-Sim PTX: __cudaRegisterFunction _Z16mb_sad_calc_nvmjPtS_ii : hostFun 0x0x4022b8, fat_cubin_handle = 1
GPGPU-Sim PTX: __cudaRegisterFunction _Z16mb_sad_calc_nvm2PtS_ii : hostFun 0x0x402145, fat_cubin_handle = 1
GPGPU-Sim PTX: __cudaRegisterFunction _Z16mb_sad_calc_nvm1PtS_ii : hostFun 0x0x401fd2, fat_cubin_handle = 1
GPGPU-Sim PTX: __cudaRegisterFunction _Z16mb_sad_calc_nvmwPtS_ii : hostFun 0x0x401e5f, fat_cubin_handle = 1
GPGPU-Sim PTX: __cudaRegisterFunction _Z16mb_sad_calc_nvmqPtS_ii : hostFun 0x0x401cec, fat_cubin_handle = 1
GPGPU-Sim PTX: __cudaRegisterFunction _Z16mb_sad_calc_nvmuPtS_ii : hostFun 0x0x401b79, fat_cubin_handle = 1
GPGPU-Sim PTX: __cudaRegisterFunction _Z16mb_sad_calc_nvmoPtS_ii : hostFun 0x0x401a06, fat_cubin_handle = 1
GPGPU-Sim PTX: in __cudaRegisterTexture:
GPGPU-Sim PTX:   int dim = 2
GPGPU-Sim PTX:   int norm = 0
GPGPU-Sim PTX:   int ext = 0
GPGPU-Sim PTX:   Execution warning: Not finished implementing "void __cudaRegisterTextureInternal(void**, const textureReference*, const void**, const char*, int, int, int, gpgpu_context*)"
GPGPU-Sim PTX: __cudaRegisterVar: hostVar = 0x6132a0; deviceAddress = NVM_log; deviceName = NVM_log
GPGPU-Sim PTX: __cudaRegisterVar: Registering const memory space of 33554432 bytes
GPGPU-Sim PTX registering global NVM_log hostVar to name mapping
GPGPU-Sim PTX: __cudaRegisterVar: hostVar = 0x26132a0; deviceAddress = NVM_flag; deviceName = NVM_flag
GPGPU-Sim PTX: __cudaRegisterVar: Registering const memory space of 4194304 bytes
GPGPU-Sim PTX registering global NVM_flag hostVar to name mapping
self exe links to: /home/pli11/Videos/parboil_benchmark/parboil/benchmarks/sad/build/nvm_default/sad
self exe links to: /home/pli11/Videos/parboil_benchmark/parboil/benchmarks/sad/build/nvm_default/sad
10.1
GPGPU-Sim PTX: __cudaRegisterFatBinary, fat_cubin_handle = 2, filename=default
GPGPU-Sim PTX: __cudaRegisterFunction _Z18larger_sad_calc_16Ptii : hostFun 0x0x403ff1, fat_cubin_handle = 2
GPGPU-Sim PTX: __cudaRegisterFunction _Z22larger_sad_calc_8_nvmbPtii : hostFun 0x0x403e9a, fat_cubin_handle = 2
GPGPU-Sim PTX: __cudaRegisterFunction _Z22larger_sad_calc_8_nvmuPtii : hostFun 0x0x403d43, fat_cubin_handle = 2
GPGPU-Sim PTX: __cudaRegisterFunction _Z22larger_sad_calc_8_nvmoPtii : hostFun 0x0x403bec, fat_cubin_handle = 2
GPGPU-Sim PTX: __cudaRegisterFunction _Z17larger_sad_calc_8Ptii : hostFun 0x0x403a95, fat_cubin_handle = 2
self exe links to: /home/pli11/Videos/parboil_benchmark/parboil/benchmarks/sad/build/nvm_default/sad
self exe links to: /home/pli11/Videos/parboil_benchmark/parboil/benchmarks/sad/build/nvm_default/sad
10.1
GPGPU-Sim PTX: __cudaRegisterFatBinary, fat_cubin_handle = 3, filename=default
GPGPU-Sim PTX: __cudaRegisterFunction _Z15kernel_l2wb_pctv : hostFun 0x0x40676c, fat_cubin_handle = 3
GPGPU-Sim PTX: __cudaRegisterFunction _Z11kernel_l2wbv : hostFun 0x0x406672, fat_cubin_handle = 3
GPGPU-Sim PTX: cudaMallocArray: devPtr32 = -1073691136
GPGPU-Sim PTX: in cudaBindTextureToArray: 0x613220 0x121db5c0
GPGPU-Sim PTX:   devPtr32 = c000c600
GPGPU-Sim PTX:   Name corresponding to textureReference: ref
GPGPU-Sim PTX:   Texture Normalized? = 0
GPGPU-Sim PTX:   texel size = 2
GPGPU-Sim PTX:   texture cache linesize = 128
GPGPU-Sim PTX:   Tx = 16; Ty = 4, Tx_numbits = 4, Ty_numbits = 2
GPGPU-Sim PTX:   Texel size = 2 bytes; texel_size_numbits = 1
GPGPU-Sim PTX:   Binding texture to array starting at devPtr32 = 0xc000c600
GPGPU-Sim PTX:   Texel size = 2 bytes
event update
width * height = 99
GPGPU-Sim: synchronize waiting for inactive GPU simulation
GPGPU-Sim API: Stream Manager State
GPGPU-Sim: detected inactive GPU simulation thread
GPGPU-Sim PTX: Setting up arguments for 8 bytes starting at 0x7ffc79eb64c8..
GPGPU-Sim PTX: Setting up arguments for 8 bytes starting at 0x7ffc79eb64c0..
GPGPU-Sim PTX: Setting up arguments for 4 bytes starting at 0x7ffc79eb64bc..
GPGPU-Sim PTX: Setting up arguments for 4 bytes starting at 0x7ffc79eb64b8..

GPGPU-Sim PTX: cudaLaunch for 0x0x40242b (mode=performance simulation) on stream 0
GPGPU-Sim PTX: finding reconvergence points for '_Z16mb_sad_calc_nvmlPtS_ii'...
GPGPU-Sim PTX: Finding dominators for '_Z16mb_sad_calc_nvmlPtS_ii'...
GPGPU-Sim PTX: Finding immediate dominators for '_Z16mb_sad_calc_nvmlPtS_ii'...
GPGPU-Sim PTX: Finding postdominators for '_Z16mb_sad_calc_nvmlPtS_ii'...
GPGPU-Sim PTX: Finding immediate postdominators for '_Z16mb_sad_calc_nvmlPtS_ii'...
GPGPU-Sim PTX: pre-decoding instructions for '_Z16mb_sad_calc_nvmlPtS_ii'...
GPGPU-Sim PTX: reconvergence points for _Z16mb_sad_calc_nvmlPtS_ii...
GPGPU-Sim PTX:  1 (potential) branch divergence @  PC=0x2e38 (sad.1.sm_70.ptx:1786) @%p3 bra BB7_5;
GPGPU-Sim PTX:    immediate post dominator      @  PC=0x3398 (sad.1.sm_70.ptx:1974) ret;
GPGPU-Sim PTX:  2 (potential) branch divergence @  PC=0x2e78 (sad.1.sm_70.ptx:1795) @%p4 bra BB7_4;
GPGPU-Sim PTX:    immediate post dominator      @  PC=0x3370 (sad.1.sm_70.ptx:1962) membar.gl;
GPGPU-Sim PTX:  3 (potential) branch divergence @  PC=0x3368 (sad.1.sm_70.ptx:1958) @%p5 bra BB7_3;
GPGPU-Sim PTX:    immediate post dominator      @  PC=0x3370 (sad.1.sm_70.ptx:1962) membar.gl;
GPGPU-Sim PTX: ... end of reconvergence points for _Z16mb_sad_calc_nvmlPtS_ii
GPGPU-Sim PTX: ... done pre-decoding instructions for '_Z16mb_sad_calc_nvmlPtS_ii'.
GPGPU-Sim PTX: pushing kernel '_Z16mb_sad_calc_nvmlPtS_ii' to stream 0, gridDim= (44,36,1) blockDim = (61,1,1) 
GPGPU-Sim uArch: Shader 0 bind to kernel 1 '_Z16mb_sad_calc_nvmlPtS_ii'
GPGPU-Sim uArch: CTA/core = 21, limited by: regs
GPGPU-Sim: Reconfigure L1 cache to 128KB
GPGPU-Sim uArch: Shader 1 bind to kernel 1 '_Z16mb_sad_calc_nvmlPtS_ii'
GPGPU-Sim uArch: Shader 2 bind to kernel 1 '_Z16mb_sad_calc_nvmlPtS_ii'
GPGPU-Sim uArch: Shader 3 bind to kernel 1 '_Z16mb_sad_calc_nvmlPtS_ii'
GPGPU-Sim uArch: Shader 4 bind to kernel 1 '_Z16mb_sad_calc_nvmlPtS_ii'
GPGPU-Sim uArch: Shader 5 bind to kernel 1 '_Z16mb_sad_calc_nvmlPtS_ii'
GPGPU-Sim uArch: Shader 6 bind to kernel 1 '_Z16mb_sad_calc_nvmlPtS_ii'
GPGPU-Sim uArch: Shader 7 bind to kernel 1 '_Z16mb_sad_calc_nvmlPtS_ii'
GPGPU-Sim uArch: Shader 8 bind to kernel 1 '_Z16mb_sad_calc_nvmlPtS_ii'
GPGPU-Sim uArch: Shader 9 bind to kernel 1 '_Z16mb_sad_calc_nvmlPtS_ii'
GPGPU-Sim uArch: Shader 10 bind to kernel 1 '_Z16mb_sad_calc_nvmlPtS_ii'
GPGPU-Sim uArch: Shader 11 bind to kernel 1 '_Z16mb_sad_calc_nvmlPtS_ii'
GPGPU-Sim uArch: Shader 12 bind to kernel 1 '_Z16mb_sad_calc_nvmlPtS_ii'
GPGPU-Sim uArch: Shader 13 bind to kernel 1 '_Z16mb_sad_calc_nvmlPtS_ii'
GPGPU-Sim uArch: Shader 14 bind to kernel 1 '_Z16mb_sad_calc_nvmlPtS_ii'
GPGPU-Sim uArch: Shader 15 bind to kernel 1 '_Z16mb_sad_calc_nvmlPtS_ii'
GPGPU-Sim uArch: Shader 16 bind to kernel 1 '_Z16mb_sad_calc_nvmlPtS_ii'
GPGPU-Sim uArch: Shader 17 bind to kernel 1 '_Z16mb_sad_calc_nvmlPtS_ii'
GPGPU-Sim uArch: Shader 18 bind to kernel 1 '_Z16mb_sad_calc_nvmlPtS_ii'
GPGPU-Sim uArch: Shader 19 bind to kernel 1 '_Z16mb_sad_calc_nvmlPtS_ii'
GPGPU-Sim uArch: Shader 20 bind to kernel 1 '_Z16mb_sad_calc_nvmlPtS_ii'
GPGPU-Sim uArch: Shader 21 bind to kernel 1 '_Z16mb_sad_calc_nvmlPtS_ii'
GPGPU-Sim uArch: Shader 22 bind to kernel 1 '_Z16mb_sad_calc_nvmlPtS_ii'
GPGPU-Sim uArch: Shader 23 bind to kernel 1 '_Z16mb_sad_calc_nvmlPtS_ii'
GPGPU-Sim uArch: Shader 24 bind to kernel 1 '_Z16mb_sad_calc_nvmlPtS_ii'
GPGPU-Sim uArch: Shader 25 bind to kernel 1 '_Z16mb_sad_calc_nvmlPtS_ii'
GPGPU-Sim uArch: Shader 26 bind to kernel 1 '_Z16mb_sad_calc_nvmlPtS_ii'
GPGPU-Sim uArch: Shader 27 bind to kernel 1 '_Z16mb_sad_calc_nvmlPtS_ii'
GPGPU-Sim uArch: Shader 28 bind to kernel 1 '_Z16mb_sad_calc_nvmlPtS_ii'
GPGPU-Sim uArch: Shader 29 bind to kernel 1 '_Z16mb_sad_calc_nvmlPtS_ii'
GPGPU-Sim uArch: Shader 30 bind to kernel 1 '_Z16mb_sad_calc_nvmlPtS_ii'
GPGPU-Sim uArch: Shader 31 bind to kernel 1 '_Z16mb_sad_calc_nvmlPtS_ii'
GPGPU-Sim uArch: Shader 32 bind to kernel 1 '_Z16mb_sad_calc_nvmlPtS_ii'
GPGPU-Sim uArch: Shader 33 bind to kernel 1 '_Z16mb_sad_calc_nvmlPtS_ii'
GPGPU-Sim uArch: Shader 34 bind to kernel 1 '_Z16mb_sad_calc_nvmlPtS_ii'
GPGPU-Sim uArch: Shader 35 bind to kernel 1 '_Z16mb_sad_calc_nvmlPtS_ii'
GPGPU-Sim uArch: Shader 36 bind to kernel 1 '_Z16mb_sad_calc_nvmlPtS_ii'
GPGPU-Sim uArch: Shader 37 bind to kernel 1 '_Z16mb_sad_calc_nvmlPtS_ii'
GPGPU-Sim uArch: Shader 38 bind to kernel 1 '_Z16mb_sad_calc_nvmlPtS_ii'
GPGPU-Sim uArch: Shader 39 bind to kernel 1 '_Z16mb_sad_calc_nvmlPtS_ii'
GPGPU-Sim uArch: Shader 40 bind to kernel 1 '_Z16mb_sad_calc_nvmlPtS_ii'
GPGPU-Sim uArch: Shader 41 bind to kernel 1 '_Z16mb_sad_calc_nvmlPtS_ii'
GPGPU-Sim uArch: Shader 42 bind to kernel 1 '_Z16mb_sad_calc_nvmlPtS_ii'
GPGPU-Sim uArch: Shader 43 bind to kernel 1 '_Z16mb_sad_calc_nvmlPtS_ii'
GPGPU-Sim uArch: Shader 44 bind to kernel 1 '_Z16mb_sad_calc_nvmlPtS_ii'
GPGPU-Sim uArch: Shader 45 bind to kernel 1 '_Z16mb_sad_calc_nvmlPtS_ii'
GPGPU-Sim uArch: Shader 46 bind to kernel 1 '_Z16mb_sad_calc_nvmlPtS_ii'
GPGPU-Sim uArch: Shader 47 bind to kernel 1 '_Z16mb_sad_calc_nvmlPtS_ii'
GPGPU-Sim uArch: Shader 48 bind to kernel 1 '_Z16mb_sad_calc_nvmlPtS_ii'
GPGPU-Sim uArch: Shader 49 bind to kernel 1 '_Z16mb_sad_calc_nvmlPtS_ii'
GPGPU-Sim uArch: Shader 50 bind to kernel 1 '_Z16mb_sad_calc_nvmlPtS_ii'
GPGPU-Sim uArch: Shader 51 bind to kernel 1 '_Z16mb_sad_calc_nvmlPtS_ii'
GPGPU-Sim uArch: Shader 52 bind to kernel 1 '_Z16mb_sad_calc_nvmlPtS_ii'
GPGPU-Sim uArch: Shader 53 bind to kernel 1 '_Z16mb_sad_calc_nvmlPtS_ii'
GPGPU-Sim uArch: Shader 54 bind to kernel 1 '_Z16mb_sad_calc_nvmlPtS_ii'
GPGPU-Sim uArch: Shader 55 bind to kernel 1 '_Z16mb_sad_calc_nvmlPtS_ii'
GPGPU-Sim uArch: Shader 56 bind to kernel 1 '_Z16mb_sad_calc_nvmlPtS_ii'
GPGPU-Sim uArch: Shader 57 bind to kernel 1 '_Z16mb_sad_calc_nvmlPtS_ii'
GPGPU-Sim uArch: Shader 58 bind to kernel 1 '_Z16mb_sad_calc_nvmlPtS_ii'
GPGPU-Sim uArch: Shader 59 bind to kernel 1 '_Z16mb_sad_calc_nvmlPtS_ii'
GPGPU-Sim uArch: Shader 60 bind to kernel 1 '_Z16mb_sad_calc_nvmlPtS_ii'
GPGPU-Sim uArch: Shader 61 bind to kernel 1 '_Z16mb_sad_calc_nvmlPtS_ii'
GPGPU-Sim uArch: Shader 62 bind to kernel 1 '_Z16mb_sad_calc_nvmlPtS_ii'
GPGPU-Sim uArch: Shader 63 bind to kernel 1 '_Z16mb_sad_calc_nvmlPtS_ii'
GPGPU-Sim uArch: Shader 64 bind to kernel 1 '_Z16mb_sad_calc_nvmlPtS_ii'
GPGPU-Sim uArch: Shader 65 bind to kernel 1 '_Z16mb_sad_calc_nvmlPtS_ii'
GPGPU-Sim uArch: Shader 66 bind to kernel 1 '_Z16mb_sad_calc_nvmlPtS_ii'
GPGPU-Sim uArch: Shader 67 bind to kernel 1 '_Z16mb_sad_calc_nvmlPtS_ii'
GPGPU-Sim uArch: Shader 68 bind to kernel 1 '_Z16mb_sad_calc_nvmlPtS_ii'
GPGPU-Sim uArch: Shader 69 bind to kernel 1 '_Z16mb_sad_calc_nvmlPtS_ii'
GPGPU-Sim uArch: Shader 70 bind to kernel 1 '_Z16mb_sad_calc_nvmlPtS_ii'
GPGPU-Sim uArch: Shader 71 bind to kernel 1 '_Z16mb_sad_calc_nvmlPtS_ii'
GPGPU-Sim uArch: Shader 72 bind to kernel 1 '_Z16mb_sad_calc_nvmlPtS_ii'
GPGPU-Sim uArch: Shader 73 bind to kernel 1 '_Z16mb_sad_calc_nvmlPtS_ii'
GPGPU-Sim uArch: Shader 74 bind to kernel 1 '_Z16mb_sad_calc_nvmlPtS_ii'
GPGPU-Sim uArch: Shader 75 bind to kernel 1 '_Z16mb_sad_calc_nvmlPtS_ii'
GPGPU-Sim uArch: Shader 76 bind to kernel 1 '_Z16mb_sad_calc_nvmlPtS_ii'
GPGPU-Sim uArch: Shader 77 bind to kernel 1 '_Z16mb_sad_calc_nvmlPtS_ii'
GPGPU-Sim uArch: Shader 78 bind to kernel 1 '_Z16mb_sad_calc_nvmlPtS_ii'
GPGPU-Sim uArch: Shader 79 bind to kernel 1 '_Z16mb_sad_calc_nvmlPtS_ii'
Destroy streams for kernel 1: size 0
kernel_name = _Z16mb_sad_calc_nvmlPtS_ii 
kernel_launch_uid = 1 
gpu_sim_cycle = 154982
gpu_sim_insn = 236171232
gpu_ipc =    1523.8623
gpu_tot_sim_cycle = 154982
gpu_tot_sim_insn = 236171232
gpu_tot_ipc =    1523.8623
gpu_tot_issued_cta = 1584
gpu_occupancy = 50.1189% 
gpu_tot_occupancy = 50.1189% 
max_total_param_size = 0
gpu_stall_dramfull = 0
gpu_stall_icnt2sh    = 1120
partiton_level_parallism =      12.9231
partiton_level_parallism_total  =      12.9231
partiton_level_parallism_util =      13.7625
partiton_level_parallism_util_total  =      13.7625
L2_BW  =     479.0131 GB/Sec
L2_BW_total  =     479.0131 GB/Sec
gpu_total_sim_rate=160879
############## bottleneck_stats #############
cycles: core 154982, icnt 154982, l2 154982, dram 116373
gpu_ipc	1523.862
gpu_tot_issued_cta = 1584, average cycles = 98
n_dram_writes	 0, n_dram_reads	 0
n_GLOBAL_ACC_R	 0 
n_LOCAL_ACC_R	 0 
n_CONST_ACC_R	 0 
n_TEXTURE_ACC_R	 0 
n_GLOBAL_ACC_W	 0 
n_LOCAL_ACC_W	 0 
n_L1_WRBK_ACC	 0 
n_L2_WRBK_ACC	 0 
n_L1_WR_ALLOC_R	 0 
n_L2_WR_ALLOC_R	 0 

n_sm	 80, n_schedulers	 4
scheduler util	0.158	80
L1D data util	0.641	80	0.650	37
L1D tag util	0.213	80	0.215	0
L2 data util	0.012	64	0.014	1
L2 tag util	0.186	64	0.188	1
n_l2_access	 1846674
icnt s2m util	0.000	0	0.000	1	flits per packet: -nan
icnt m2s util	0.000	0	0.000	1	flits per packet: -nan
sum=0
n_mem	 32
dram util	0.000	0	0.000	1

latency_l1_hit:	16283040, num_l1_reqs:	814152
L1 hit latency:	20
latency_l2_hit:	60592936, num_l2_reqs:	121698
L2 hit latency:	497
latency_dram:	360043362, num_dram_reqs:	1724976
DRAM latency:	208

n_reg	65536, n_smem	98304, n_thread	2048, n_tb	32
reg file	0.984
smem size	0.000
thread slot	0.656
TB slot    	0.656
L1I tag util	0.319	80	0.323	0

n_mem_pipe	1, n_sp_pipe	4, n_sfu_pipe	4
mem pipe util	0.154	80	0.155	0
sp pipe util	0.000	0	0.000	0
sfu pipe util	0.000	0	0.000	0
ldst mem cycle	0.016	80	0.017	0

smem port	0.000	0

n_reg_bank	16
reg port	0.251	16	0.271	11
L1D tag util	0.213	80	0.215	0
L1D fill util	0.005	80	0.005	37
n_l1d_mshr	4096
L1D mshr util	0.000	80
n_l1d_missq	16
L1D missq util	0.009	80
L1D hit rate	0.309
L1D miss rate	0.691
L1D rsfail rate	0.000
L2 tag util	0.186	64	0.188	1
L2 fill util	0.000	0	0.000	1
n_l2_mshr	192
n_l2_missq	32
L2 mshr util	0.000	0	0.000	1
L2 missq util	0.000	0	0.000	1
L2 hit rate	0.066
L2 miss rate	0.934
L2 rsfail rate	0.000

dram activity	0.000	0	0.000	1

load trans eff	0.062
load trans sz	32.000
load_useful_bytes 1824768, load_transaction_bytes 29196288, icnt_m2s_bytes 0
n_gmem_load_insns 912384, n_gmem_load_accesses 912384
n_smem_access_insn 0, n_smem_accesses 0

tmp_counter/12	0.207

run 0.037, fetch 0.000, sync 0.017, control 0.000, data 0.943, struct 0.003
############ end_bottleneck_stats #############

========= Core cache stats =========
L1I_cache:
	L1I_total_cache_accesses = 0
	L1I_total_cache_misses = 0
	L1I_total_cache_pending_hits = 0
	L1I_total_cache_reservation_fails = 0
L1D_cache:
	L1D_cache_core[0]: Access = 33300, Miss = 23103, Miss_rate = 0.694, Pending_hits = 0, Reservation_fails = 0
	L1D_cache_core[1]: Access = 33300, Miss = 23069, Miss_rate = 0.693, Pending_hits = 0, Reservation_fails = 0
	L1D_cache_core[2]: Access = 33300, Miss = 23054, Miss_rate = 0.692, Pending_hits = 0, Reservation_fails = 0
	L1D_cache_core[3]: Access = 33300, Miss = 23012, Miss_rate = 0.691, Pending_hits = 0, Reservation_fails = 0
	L1D_cache_core[4]: Access = 33300, Miss = 23051, Miss_rate = 0.692, Pending_hits = 0, Reservation_fails = 0
	L1D_cache_core[5]: Access = 33300, Miss = 23071, Miss_rate = 0.693, Pending_hits = 0, Reservation_fails = 0
	L1D_cache_core[6]: Access = 33300, Miss = 23023, Miss_rate = 0.691, Pending_hits = 0, Reservation_fails = 0
	L1D_cache_core[7]: Access = 33300, Miss = 22945, Miss_rate = 0.689, Pending_hits = 0, Reservation_fails = 0
	L1D_cache_core[8]: Access = 33300, Miss = 22971, Miss_rate = 0.690, Pending_hits = 0, Reservation_fails = 0
	L1D_cache_core[9]: Access = 33300, Miss = 23038, Miss_rate = 0.692, Pending_hits = 0, Reservation_fails = 0
	L1D_cache_core[10]: Access = 33300, Miss = 22975, Miss_rate = 0.690, Pending_hits = 0, Reservation_fails = 0
	L1D_cache_core[11]: Access = 33300, Miss = 22997, Miss_rate = 0.691, Pending_hits = 0, Reservation_fails = 0
	L1D_cache_core[12]: Access = 33300, Miss = 23091, Miss_rate = 0.693, Pending_hits = 0, Reservation_fails = 0
	L1D_cache_core[13]: Access = 33300, Miss = 23069, Miss_rate = 0.693, Pending_hits = 0, Reservation_fails = 0
	L1D_cache_core[14]: Access = 33300, Miss = 22999, Miss_rate = 0.691, Pending_hits = 0, Reservation_fails = 0
	L1D_cache_core[15]: Access = 33300, Miss = 23034, Miss_rate = 0.692, Pending_hits = 0, Reservation_fails = 0
	L1D_cache_core[16]: Access = 33300, Miss = 23088, Miss_rate = 0.693, Pending_hits = 0, Reservation_fails = 0
	L1D_cache_core[17]: Access = 33300, Miss = 23038, Miss_rate = 0.692, Pending_hits = 0, Reservation_fails = 0
	L1D_cache_core[18]: Access = 33300, Miss = 23017, Miss_rate = 0.691, Pending_hits = 0, Reservation_fails = 0
	L1D_cache_core[19]: Access = 33300, Miss = 23025, Miss_rate = 0.691, Pending_hits = 0, Reservation_fails = 0
	L1D_cache_core[20]: Access = 33300, Miss = 23049, Miss_rate = 0.692, Pending_hits = 0, Reservation_fails = 0
	L1D_cache_core[21]: Access = 33300, Miss = 23025, Miss_rate = 0.691, Pending_hits = 0, Reservation_fails = 0
	L1D_cache_core[22]: Access = 33300, Miss = 23014, Miss_rate = 0.691, Pending_hits = 0, Reservation_fails = 0
	L1D_cache_core[23]: Access = 33300, Miss = 23030, Miss_rate = 0.692, Pending_hits = 0, Reservation_fails = 0
	L1D_cache_core[24]: Access = 33300, Miss = 23078, Miss_rate = 0.693, Pending_hits = 0, Reservation_fails = 0
	L1D_cache_core[25]: Access = 33300, Miss = 23021, Miss_rate = 0.691, Pending_hits = 0, Reservation_fails = 0
	L1D_cache_core[26]: Access = 33300, Miss = 22832, Miss_rate = 0.686, Pending_hits = 0, Reservation_fails = 0
	L1D_cache_core[27]: Access = 33300, Miss = 23034, Miss_rate = 0.692, Pending_hits = 0, Reservation_fails = 0
	L1D_cache_core[28]: Access = 33300, Miss = 22922, Miss_rate = 0.688, Pending_hits = 0, Reservation_fails = 0
	L1D_cache_core[29]: Access = 33300, Miss = 23010, Miss_rate = 0.691, Pending_hits = 0, Reservation_fails = 0
	L1D_cache_core[30]: Access = 33300, Miss = 23039, Miss_rate = 0.692, Pending_hits = 0, Reservation_fails = 0
	L1D_cache_core[31]: Access = 33300, Miss = 23051, Miss_rate = 0.692, Pending_hits = 0, Reservation_fails = 0
	L1D_cache_core[32]: Access = 33300, Miss = 23066, Miss_rate = 0.693, Pending_hits = 0, Reservation_fails = 0
	L1D_cache_core[33]: Access = 33300, Miss = 23046, Miss_rate = 0.692, Pending_hits = 0, Reservation_fails = 0
	L1D_cache_core[34]: Access = 33300, Miss = 22976, Miss_rate = 0.690, Pending_hits = 0, Reservation_fails = 0
	L1D_cache_core[35]: Access = 33300, Miss = 23014, Miss_rate = 0.691, Pending_hits = 0, Reservation_fails = 0
	L1D_cache_core[36]: Access = 33300, Miss = 22977, Miss_rate = 0.690, Pending_hits = 0, Reservation_fails = 0
	L1D_cache_core[37]: Access = 33300, Miss = 23089, Miss_rate = 0.693, Pending_hits = 0, Reservation_fails = 0
	L1D_cache_core[38]: Access = 33300, Miss = 23019, Miss_rate = 0.691, Pending_hits = 0, Reservation_fails = 0
	L1D_cache_core[39]: Access = 33300, Miss = 23012, Miss_rate = 0.691, Pending_hits = 0, Reservation_fails = 0
	L1D_cache_core[40]: Access = 33300, Miss = 23035, Miss_rate = 0.692, Pending_hits = 0, Reservation_fails = 0
	L1D_cache_core[41]: Access = 33300, Miss = 23052, Miss_rate = 0.692, Pending_hits = 0, Reservation_fails = 0
	L1D_cache_core[42]: Access = 33300, Miss = 23067, Miss_rate = 0.693, Pending_hits = 0, Reservation_fails = 0
	L1D_cache_core[43]: Access = 33300, Miss = 23017, Miss_rate = 0.691, Pending_hits = 0, Reservation_fails = 0
	L1D_cache_core[44]: Access = 33300, Miss = 23013, Miss_rate = 0.691, Pending_hits = 0, Reservation_fails = 0
	L1D_cache_core[45]: Access = 33300, Miss = 23088, Miss_rate = 0.693, Pending_hits = 0, Reservation_fails = 0
	L1D_cache_core[46]: Access = 33300, Miss = 23118, Miss_rate = 0.694, Pending_hits = 0, Reservation_fails = 0
	L1D_cache_core[47]: Access = 33300, Miss = 23055, Miss_rate = 0.692, Pending_hits = 0, Reservation_fails = 0
	L1D_cache_core[48]: Access = 33300, Miss = 23087, Miss_rate = 0.693, Pending_hits = 0, Reservation_fails = 0
	L1D_cache_core[49]: Access = 33300, Miss = 23052, Miss_rate = 0.692, Pending_hits = 0, Reservation_fails = 0
	L1D_cache_core[50]: Access = 33300, Miss = 23039, Miss_rate = 0.692, Pending_hits = 0, Reservation_fails = 0
	L1D_cache_core[51]: Access = 33300, Miss = 23020, Miss_rate = 0.691, Pending_hits = 0, Reservation_fails = 0
	L1D_cache_core[52]: Access = 33300, Miss = 23081, Miss_rate = 0.693, Pending_hits = 0, Reservation_fails = 0
	L1D_cache_core[53]: Access = 33300, Miss = 22972, Miss_rate = 0.690, Pending_hits = 0, Reservation_fails = 0
	L1D_cache_core[54]: Access = 33300, Miss = 22912, Miss_rate = 0.688, Pending_hits = 0, Reservation_fails = 0
	L1D_cache_core[55]: Access = 33300, Miss = 23017, Miss_rate = 0.691, Pending_hits = 0, Reservation_fails = 0
	L1D_cache_core[56]: Access = 33300, Miss = 23009, Miss_rate = 0.691, Pending_hits = 0, Reservation_fails = 0
	L1D_cache_core[57]: Access = 33300, Miss = 23074, Miss_rate = 0.693, Pending_hits = 0, Reservation_fails = 0
	L1D_cache_core[58]: Access = 33300, Miss = 23126, Miss_rate = 0.694, Pending_hits = 0, Reservation_fails = 0
	L1D_cache_core[59]: Access = 33300, Miss = 22995, Miss_rate = 0.691, Pending_hits = 0, Reservation_fails = 0
	L1D_cache_core[60]: Access = 33300, Miss = 23028, Miss_rate = 0.692, Pending_hits = 0, Reservation_fails = 0
	L1D_cache_core[61]: Access = 33300, Miss = 22983, Miss_rate = 0.690, Pending_hits = 0, Reservation_fails = 0
	L1D_cache_core[62]: Access = 33300, Miss = 22963, Miss_rate = 0.690, Pending_hits = 0, Reservation_fails = 0
	L1D_cache_core[63]: Access = 33300, Miss = 23017, Miss_rate = 0.691, Pending_hits = 0, Reservation_fails = 0
	L1D_cache_core[64]: Access = 31635, Miss = 21784, Miss_rate = 0.689, Pending_hits = 0, Reservation_fails = 0
	L1D_cache_core[65]: Access = 31635, Miss = 21831, Miss_rate = 0.690, Pending_hits = 0, Reservation_fails = 0
	L1D_cache_core[66]: Access = 31635, Miss = 21826, Miss_rate = 0.690, Pending_hits = 0, Reservation_fails = 0
	L1D_cache_core[67]: Access = 31635, Miss = 21785, Miss_rate = 0.689, Pending_hits = 0, Reservation_fails = 0
	L1D_cache_core[68]: Access = 31635, Miss = 21837, Miss_rate = 0.690, Pending_hits = 0, Reservation_fails = 0
	L1D_cache_core[69]: Access = 31635, Miss = 21897, Miss_rate = 0.692, Pending_hits = 0, Reservation_fails = 0
	L1D_cache_core[70]: Access = 31635, Miss = 21778, Miss_rate = 0.688, Pending_hits = 0, Reservation_fails = 0
	L1D_cache_core[71]: Access = 31635, Miss = 21851, Miss_rate = 0.691, Pending_hits = 0, Reservation_fails = 0
	L1D_cache_core[72]: Access = 31635, Miss = 21791, Miss_rate = 0.689, Pending_hits = 0, Reservation_fails = 0
	L1D_cache_core[73]: Access = 31635, Miss = 21905, Miss_rate = 0.692, Pending_hits = 0, Reservation_fails = 0
	L1D_cache_core[74]: Access = 31635, Miss = 21854, Miss_rate = 0.691, Pending_hits = 0, Reservation_fails = 0
	L1D_cache_core[75]: Access = 31635, Miss = 21924, Miss_rate = 0.693, Pending_hits = 0, Reservation_fails = 0
	L1D_cache_core[76]: Access = 31635, Miss = 21836, Miss_rate = 0.690, Pending_hits = 0, Reservation_fails = 0
	L1D_cache_core[77]: Access = 31635, Miss = 21798, Miss_rate = 0.689, Pending_hits = 0, Reservation_fails = 0
	L1D_cache_core[78]: Access = 31635, Miss = 21838, Miss_rate = 0.690, Pending_hits = 0, Reservation_fails = 0
	L1D_cache_core[79]: Access = 31635, Miss = 21879, Miss_rate = 0.692, Pending_hits = 0, Reservation_fails = 0
	L1D_total_cache_accesses = 2637360
	L1D_total_cache_misses = 1823208
	L1D_total_cache_miss_rate = 0.6913
	L1D_total_cache_pending_hits = 0
	L1D_total_cache_reservation_fails = 0
	L1D_cache_data_port_util = 0.069
	L1D_cache_fill_port_util = 0.005
L1C_cache:
	L1C_total_cache_accesses = 0
	L1C_total_cache_misses = 0
	L1C_total_cache_pending_hits = 0
	L1C_total_cache_reservation_fails = 0
L1T_cache:
	L1T_total_cache_accesses = 8175273
	L1T_total_cache_misses = 15528
	L1T_total_cache_miss_rate = 0.0019
	L1T_total_cache_pending_hits = 8159745
	L1T_total_cache_reservation_fails = 0

Total_core_cache_stats:
	Total_core_cache_stats_breakdown[GLOBAL_ACC_R][HIT] = 814152
	Total_core_cache_stats_breakdown[GLOBAL_ACC_R][HIT_RESERVED] = 0
	Total_core_cache_stats_breakdown[GLOBAL_ACC_R][MISS] = 59586
	Total_core_cache_stats_breakdown[GLOBAL_ACC_R][RESERVATION_FAIL] = 0
	Total_core_cache_stats_breakdown[GLOBAL_ACC_R][SECTOR_MISS] = 38646
	Total_core_cache_stats_breakdown[LOCAL_ACC_R][HIT] = 0
	Total_core_cache_stats_breakdown[LOCAL_ACC_R][HIT_RESERVED] = 0
	Total_core_cache_stats_breakdown[LOCAL_ACC_R][MISS] = 0
	Total_core_cache_stats_breakdown[LOCAL_ACC_R][RESERVATION_FAIL] = 0
	Total_core_cache_stats_breakdown[LOCAL_ACC_R][SECTOR_MISS] = 0
	Total_core_cache_stats_breakdown[CONST_ACC_R][HIT] = 0
	Total_core_cache_stats_breakdown[CONST_ACC_R][HIT_RESERVED] = 0
	Total_core_cache_stats_breakdown[CONST_ACC_R][MISS] = 0
	Total_core_cache_stats_breakdown[CONST_ACC_R][RESERVATION_FAIL] = 0
	Total_core_cache_stats_breakdown[CONST_ACC_R][SECTOR_MISS] = 0
	Total_core_cache_stats_breakdown[TEXTURE_ACC_R][HIT] = 0
	Total_core_cache_stats_breakdown[TEXTURE_ACC_R][HIT_RESERVED] = 8159745
	Total_core_cache_stats_breakdown[TEXTURE_ACC_R][MISS] = 15528
	Total_core_cache_stats_breakdown[TEXTURE_ACC_R][RESERVATION_FAIL] = 0
	Total_core_cache_stats_breakdown[TEXTURE_ACC_R][SECTOR_MISS] = 0
	Total_core_cache_stats_breakdown[GLOBAL_ACC_W][HIT] = 0
	Total_core_cache_stats_breakdown[GLOBAL_ACC_W][HIT_RESERVED] = 0
	Total_core_cache_stats_breakdown[GLOBAL_ACC_W][MISS] = 1724976
	Total_core_cache_stats_breakdown[GLOBAL_ACC_W][RESERVATION_FAIL] = 0
	Total_core_cache_stats_breakdown[GLOBAL_ACC_W][SECTOR_MISS] = 0
	Total_core_cache_stats_breakdown[LOCAL_ACC_W][HIT] = 0
	Total_core_cache_stats_breakdown[LOCAL_ACC_W][HIT_RESERVED] = 0
	Total_core_cache_stats_breakdown[LOCAL_ACC_W][MISS] = 0
	Total_core_cache_stats_breakdown[LOCAL_ACC_W][RESERVATION_FAIL] = 0
	Total_core_cache_stats_breakdown[LOCAL_ACC_W][SECTOR_MISS] = 0
	Total_core_cache_stats_breakdown[L1_WRBK_ACC][HIT] = 0
	Total_core_cache_stats_breakdown[L1_WRBK_ACC][HIT_RESERVED] = 0
	Total_core_cache_stats_breakdown[L1_WRBK_ACC][MISS] = 0
	Total_core_cache_stats_breakdown[L1_WRBK_ACC][RESERVATION_FAIL] = 0
	Total_core_cache_stats_breakdown[L1_WRBK_ACC][SECTOR_MISS] = 0
	Total_core_cache_stats_breakdown[L2_WRBK_ACC][HIT] = 0
	Total_core_cache_stats_breakdown[L2_WRBK_ACC][HIT_RESERVED] = 0
	Total_core_cache_stats_breakdown[L2_WRBK_ACC][MISS] = 0
	Total_core_cache_stats_breakdown[L2_WRBK_ACC][RESERVATION_FAIL] = 0
	Total_core_cache_stats_breakdown[L2_WRBK_ACC][SECTOR_MISS] = 0
	Total_core_cache_stats_breakdown[INST_ACC_R][HIT] = 0
	Total_core_cache_stats_breakdown[INST_ACC_R][HIT_RESERVED] = 0
	Total_core_cache_stats_breakdown[INST_ACC_R][MISS] = 0
	Total_core_cache_stats_breakdown[INST_ACC_R][RESERVATION_FAIL] = 0
	Total_core_cache_stats_breakdown[INST_ACC_R][SECTOR_MISS] = 0
	Total_core_cache_stats_breakdown[L1_WR_ALLOC_R][HIT] = 0
	Total_core_cache_stats_breakdown[L1_WR_ALLOC_R][HIT_RESERVED] = 0
	Total_core_cache_stats_breakdown[L1_WR_ALLOC_R][MISS] = 0
	Total_core_cache_stats_breakdown[L1_WR_ALLOC_R][RESERVATION_FAIL] = 0
	Total_core_cache_stats_breakdown[L1_WR_ALLOC_R][SECTOR_MISS] = 0
	Total_core_cache_stats_breakdown[L2_WR_ALLOC_R][HIT] = 0
	Total_core_cache_stats_breakdown[L2_WR_ALLOC_R][HIT_RESERVED] = 0
	Total_core_cache_stats_breakdown[L2_WR_ALLOC_R][MISS] = 0
	Total_core_cache_stats_breakdown[L2_WR_ALLOC_R][RESERVATION_FAIL] = 0
	Total_core_cache_stats_breakdown[L2_WR_ALLOC_R][SECTOR_MISS] = 0
	Total_core_cache_stats_breakdown[GLOBAL_ACC_R][TOTAL_ACCESS] = 912384
	Total_core_cache_stats_breakdown[TEXTURE_ACC_R][TOTAL_ACCESS] = 8175273
	Total_core_cache_stats_breakdown[GLOBAL_ACC_W][TOTAL_ACCESS] = 1724976

Total_core_cache_fail_stats:
Shader 0 warp_id issue ditsribution:
warp_id:
0, 1, 2, 3, 4, 5, 6, 7, 8, 9, 10, 11, 12, 13, 14, 15, 16, 17, 18, 19, 20, 21, 22, 23, 24, 25, 26, 27, 28, 29, 30, 31, 32, 33, 34, 35, 36, 37, 38, 39, 
distro:
2467, 2467, 2467, 2467, 2467, 2467, 2467, 2467, 2467, 2467, 2467, 2467, 2467, 2467, 2467, 2467, 2467, 2467, 2467, 2467, 2467, 2467, 2467, 2467, 2467, 2467, 2467, 2467, 2467, 2467, 2467, 2467, 2467, 2467, 2467, 2467, 2467, 2467, 2467, 2467, 
gpgpu_n_tot_thrd_icount = 250094592
gpgpu_n_tot_w_icount = 7815456
gpgpu_n_stall_shd_mem = 9197820
gpgpu_n_mem_read_local = 0
gpgpu_n_mem_write_local = 0
gpgpu_n_mem_read_global = 59586
gpgpu_n_mem_write_global = 1927728
gpgpu_n_mem_texture = 15528
gpgpu_n_mem_const = 0
gpgpu_n_load_insn  = 27599616
gpgpu_n_store_insn = 1821600
gpgpu_n_shmem_insn = 0
gpgpu_n_sstarr_insn = 0
gpgpu_n_tex_insn = 27599616
gpgpu_n_const_mem_insn = 0
gpgpu_n_param_mem_insn = 386496
gpgpu_n_shmem_bkconflict = 0
gpgpu_n_cache_bkconflict = 0
gpgpu_n_intrawarp_mshr_merge = 0
gpgpu_n_cmem_portconflict = 0
gpgpu_stall_shd_mem[c_mem][resource_stall] = 0
gpgpu_stall_shd_mem[s_mem][bk_conf] = 0
gpgpu_stall_shd_mem[gl_mem][resource_stall] = 1667952
gpgpu_stall_shd_mem[gl_mem][coal_stall] = 199584
gpgpu_stall_shd_mem[gl_mem][data_port_stall] = 0
gpu_reg_bank_conflict_stalls = 0
Warp Occupancy Distribution:
Stall:26407004	W0_Idle:588942	W0_Scoreboard:12347030	W1:0	W2:0	W3:0	W4:0	W5:0	W6:0	W7:0	W8:0	W9:0	W10:0	W11:0	W12:0	W13:0	W14:0	W15:0	W16:0	W17:0	W18:0	W19:0	W20:0	W21:0	W22:0	W23:0	W24:0	W25:0	W26:0	W27:0	W28:1910304	W29:1997424	W30:0	W31:0	W32:3907728
single_issue_nums: WS0:1973600	WS1:1973600	WS2:1934128	WS3:1934128	
dual_issue_nums: WS0:0	WS1:0	WS2:0	WS3:0	
traffic_breakdown_coretomem[GLOBAL_ACC_R] = 476688 {8:59586,}
traffic_breakdown_coretomem[GLOBAL_ACC_W] = 70621056 {8:202752,40:1724976,}
traffic_breakdown_coretomem[TEXTURE_ACC_R] = 124224 {8:15528,}
traffic_breakdown_memtocore[GLOBAL_ACC_R] = 2383440 {40:59586,}
traffic_breakdown_memtocore[GLOBAL_ACC_W] = 15421824 {8:1927728,}
traffic_breakdown_memtocore[TEXTURE_ACC_R] = 2484480 {40:62112,}
maxmflatency = 1605 
max_icnt2mem_latency = 740 
maxmrqlatency = 0 
max_icnt2sh_latency = 1059 
averagemflatency = 284 
avg_icnt2mem_latency = 33 
avg_icnt2sh_latency = 24 
mrq_lat_table:0 	0 	0 	0 	0 	0 	0 	0 	0 	0 	0 	0 	0 	0 	0 	0 	0 	0 	0 	0 	0 	0 	0 	0 	0 	0 	0 	0 	0 	0 	0 	0 	
dq_lat_table:0 	0 	0 	0 	0 	0 	0 	0 	0 	0 	0 	0 	0 	0 	0 	0 	0 	0 	0 	0 	0 	0 	0 	0 	0 	0 	0 	0 	0 	0 	0 	0 	
mf_lat_table:0 	0 	0 	0 	0 	0 	0 	1651754 	129148 	254865 	13659 	0 	0 	0 	0 	0 	0 	0 	0 	0 	0 	0 	0 	0 	0 	0 	0 	0 	0 	0 	0 	0 	
icnt2mem_lat_table:0 	113090 	59210 	18331 	1351912 	366379 	41725 	22579 	25938 	3678 	0 	0 	0 	0 	0 	0 	0 	0 	0 	0 	0 	0 	0 	0 	
icnt2sh_lat_table:0 	1460522 	111956 	105816 	108774 	97599 	81687 	36188 	19753 	27052 	79 	0 	0 	0 	0 	0 	0 	0 	0 	0 	0 	0 	0 	0 	
mf_lat_pw_table:0 	0 	0 	0 	0 	0 	0 	205 	83 	9 	1 	0 	0 	0 	0 	0 	0 	0 	0 	0 	0 	0 	0 	0 	0 	0 	0 	0 	0 	0 	0 	0 	
maximum concurrent accesses to same row:
dram[0]:         0         0         0         0         0         0         0         0         0         0         0         0         0         0         0         0 
dram[1]:         0         0         0         0         0         0         0         0         0         0         0         0         0         0         0         0 
dram[2]:         0         0         0         0         0         0         0         0         0         0         0         0         0         0         0         0 
dram[3]:         0         0         0         0         0         0         0         0         0         0         0         0         0         0         0         0 
dram[4]:         0         0         0         0         0         0         0         0         0         0         0         0         0         0         0         0 
dram[5]:         0         0         0         0         0         0         0         0         0         0         0         0         0         0         0         0 
dram[6]:         0         0         0         0         0         0         0         0         0         0         0         0         0         0         0         0 
dram[7]:         0         0         0         0         0         0         0         0         0         0         0         0         0         0         0         0 
dram[8]:         0         0         0         0         0         0         0         0         0         0         0         0         0         0         0         0 
dram[9]:         0         0         0         0         0         0         0         0         0         0         0         0         0         0         0         0 
dram[10]:         0         0         0         0         0         0         0         0         0         0         0         0         0         0         0         0 
dram[11]:         0         0         0         0         0         0         0         0         0         0         0         0         0         0         0         0 
dram[12]:         0         0         0         0         0         0         0         0         0         0         0         0         0         0         0         0 
dram[13]:         0         0         0         0         0         0         0         0         0         0         0         0         0         0         0         0 
dram[14]:         0         0         0         0         0         0         0         0         0         0         0         0         0         0         0         0 
dram[15]:         0         0         0         0         0         0         0         0         0         0         0         0         0         0         0         0 
dram[16]:         0         0         0         0         0         0         0         0         0         0         0         0         0         0         0         0 
dram[17]:         0         0         0         0         0         0         0         0         0         0         0         0         0         0         0         0 
dram[18]:         0         0         0         0         0         0         0         0         0         0         0         0         0         0         0         0 
dram[19]:         0         0         0         0         0         0         0         0         0         0         0         0         0         0         0         0 
dram[20]:         0         0         0         0         0         0         0         0         0         0         0         0         0         0         0         0 
dram[21]:         0         0         0         0         0         0         0         0         0         0         0         0         0         0         0         0 
dram[22]:         0         0         0         0         0         0         0         0         0         0         0         0         0         0         0         0 
dram[23]:         0         0         0         0         0         0         0         0         0         0         0         0         0         0         0         0 
dram[24]:         0         0         0         0         0         0         0         0         0         0         0         0         0         0         0         0 
dram[25]:         0         0         0         0         0         0         0         0         0         0         0         0         0         0         0         0 
dram[26]:         0         0         0         0         0         0         0         0         0         0         0         0         0         0         0         0 
dram[27]:         0         0         0         0         0         0         0         0         0         0         0         0         0         0         0         0 
dram[28]:         0         0         0         0         0         0         0         0         0         0         0         0         0         0         0         0 
dram[29]:         0         0         0         0         0         0         0         0         0         0         0         0         0         0         0         0 
dram[30]:         0         0         0         0         0         0         0         0         0         0         0         0         0         0         0         0 
dram[31]:         0         0         0         0         0         0         0         0         0         0         0         0         0         0         0         0 
maximum service time to same row:
dram[0]:         0         0         0         0         0         0         0         0         0         0         0         0         0         0         0         0 
dram[1]:         0         0         0         0         0         0         0         0         0         0         0         0         0         0         0         0 
dram[2]:         0         0         0         0         0         0         0         0         0         0         0         0         0         0         0         0 
dram[3]:         0         0         0         0         0         0         0         0         0         0         0         0         0         0         0         0 
dram[4]:         0         0         0         0         0         0         0         0         0         0         0         0         0         0         0         0 
dram[5]:         0         0         0         0         0         0         0         0         0         0         0         0         0         0         0         0 
dram[6]:         0         0         0         0         0         0         0         0         0         0         0         0         0         0         0         0 
dram[7]:         0         0         0         0         0         0         0         0         0         0         0         0         0         0         0         0 
dram[8]:         0         0         0         0         0         0         0         0         0         0         0         0         0         0         0         0 
dram[9]:         0         0         0         0         0         0         0         0         0         0         0         0         0         0         0         0 
dram[10]:         0         0         0         0         0         0         0         0         0         0         0         0         0         0         0         0 
dram[11]:         0         0         0         0         0         0         0         0         0         0         0         0         0         0         0         0 
dram[12]:         0         0         0         0         0         0         0         0         0         0         0         0         0         0         0         0 
dram[13]:         0         0         0         0         0         0         0         0         0         0         0         0         0         0         0         0 
dram[14]:         0         0         0         0         0         0         0         0         0         0         0         0         0         0         0         0 
dram[15]:         0         0         0         0         0         0         0         0         0         0         0         0         0         0         0         0 
dram[16]:         0         0         0         0         0         0         0         0         0         0         0         0         0         0         0         0 
dram[17]:         0         0         0         0         0         0         0         0         0         0         0         0         0         0         0         0 
dram[18]:         0         0         0         0         0         0         0         0         0         0         0         0         0         0         0         0 
dram[19]:         0         0         0         0         0         0         0         0         0         0         0         0         0         0         0         0 
dram[20]:         0         0         0         0         0         0         0         0         0         0         0         0         0         0         0         0 
dram[21]:         0         0         0         0         0         0         0         0         0         0         0         0         0         0         0         0 
dram[22]:         0         0         0         0         0         0         0         0         0         0         0         0         0         0         0         0 
dram[23]:         0         0         0         0         0         0         0         0         0         0         0         0         0         0         0         0 
dram[24]:         0         0         0         0         0         0         0         0         0         0         0         0         0         0         0         0 
dram[25]:         0         0         0         0         0         0         0         0         0         0         0         0         0         0         0         0 
dram[26]:         0         0         0         0         0         0         0         0         0         0         0         0         0         0         0         0 
dram[27]:         0         0         0         0         0         0         0         0         0         0         0         0         0         0         0         0 
dram[28]:         0         0         0         0         0         0         0         0         0         0         0         0         0         0         0         0 
dram[29]:         0         0         0         0         0         0         0         0         0         0         0         0         0         0         0         0 
dram[30]:         0         0         0         0         0         0         0         0         0         0         0         0         0         0         0         0 
dram[31]:         0         0         0         0         0         0         0         0         0         0         0         0         0         0         0         0 
average row accesses per activate:
dram[0]:      -nan      -nan      -nan      -nan      -nan      -nan      -nan      -nan      -nan      -nan      -nan      -nan      -nan      -nan      -nan      -nan 
dram[1]:      -nan      -nan      -nan      -nan      -nan      -nan      -nan      -nan      -nan      -nan      -nan      -nan      -nan      -nan      -nan      -nan 
dram[2]:      -nan      -nan      -nan      -nan      -nan      -nan      -nan      -nan      -nan      -nan      -nan      -nan      -nan      -nan      -nan      -nan 
dram[3]:      -nan      -nan      -nan      -nan      -nan      -nan      -nan      -nan      -nan      -nan      -nan      -nan      -nan      -nan      -nan      -nan 
dram[4]:      -nan      -nan      -nan      -nan      -nan      -nan      -nan      -nan      -nan      -nan      -nan      -nan      -nan      -nan      -nan      -nan 
dram[5]:      -nan      -nan      -nan      -nan      -nan      -nan      -nan      -nan      -nan      -nan      -nan      -nan      -nan      -nan      -nan      -nan 
dram[6]:      -nan      -nan      -nan      -nan      -nan      -nan      -nan      -nan      -nan      -nan      -nan      -nan      -nan      -nan      -nan      -nan 
dram[7]:      -nan      -nan      -nan      -nan      -nan      -nan      -nan      -nan      -nan      -nan      -nan      -nan      -nan      -nan      -nan      -nan 
dram[8]:      -nan      -nan      -nan      -nan      -nan      -nan      -nan      -nan      -nan      -nan      -nan      -nan      -nan      -nan      -nan      -nan 
dram[9]:      -nan      -nan      -nan      -nan      -nan      -nan      -nan      -nan      -nan      -nan      -nan      -nan      -nan      -nan      -nan      -nan 
dram[10]:      -nan      -nan      -nan      -nan      -nan      -nan      -nan      -nan      -nan      -nan      -nan      -nan      -nan      -nan      -nan      -nan 
dram[11]:      -nan      -nan      -nan      -nan      -nan      -nan      -nan      -nan      -nan      -nan      -nan      -nan      -nan      -nan      -nan      -nan 
dram[12]:      -nan      -nan      -nan      -nan      -nan      -nan      -nan      -nan      -nan      -nan      -nan      -nan      -nan      -nan      -nan      -nan 
dram[13]:      -nan      -nan      -nan      -nan      -nan      -nan      -nan      -nan      -nan      -nan      -nan      -nan      -nan      -nan      -nan      -nan 
dram[14]:      -nan      -nan      -nan      -nan      -nan      -nan      -nan      -nan      -nan      -nan      -nan      -nan      -nan      -nan      -nan      -nan 
dram[15]:      -nan      -nan      -nan      -nan      -nan      -nan      -nan      -nan      -nan      -nan      -nan      -nan      -nan      -nan      -nan      -nan 
dram[16]:      -nan      -nan      -nan      -nan      -nan      -nan      -nan      -nan      -nan      -nan      -nan      -nan      -nan      -nan      -nan      -nan 
dram[17]:      -nan      -nan      -nan      -nan      -nan      -nan      -nan      -nan      -nan      -nan      -nan      -nan      -nan      -nan      -nan      -nan 
dram[18]:      -nan      -nan      -nan      -nan      -nan      -nan      -nan      -nan      -nan      -nan      -nan      -nan      -nan      -nan      -nan      -nan 
dram[19]:      -nan      -nan      -nan      -nan      -nan      -nan      -nan      -nan      -nan      -nan      -nan      -nan      -nan      -nan      -nan      -nan 
dram[20]:      -nan      -nan      -nan      -nan      -nan      -nan      -nan      -nan      -nan      -nan      -nan      -nan      -nan      -nan      -nan      -nan 
dram[21]:      -nan      -nan      -nan      -nan      -nan      -nan      -nan      -nan      -nan      -nan      -nan      -nan      -nan      -nan      -nan      -nan 
dram[22]:      -nan      -nan      -nan      -nan      -nan      -nan      -nan      -nan      -nan      -nan      -nan      -nan      -nan      -nan      -nan      -nan 
dram[23]:      -nan      -nan      -nan      -nan      -nan      -nan      -nan      -nan      -nan      -nan      -nan      -nan      -nan      -nan      -nan      -nan 
dram[24]:      -nan      -nan      -nan      -nan      -nan      -nan      -nan      -nan      -nan      -nan      -nan      -nan      -nan      -nan      -nan      -nan 
dram[25]:      -nan      -nan      -nan      -nan      -nan      -nan      -nan      -nan      -nan      -nan      -nan      -nan      -nan      -nan      -nan      -nan 
dram[26]:      -nan      -nan      -nan      -nan      -nan      -nan      -nan      -nan      -nan      -nan      -nan      -nan      -nan      -nan      -nan      -nan 
dram[27]:      -nan      -nan      -nan      -nan      -nan      -nan      -nan      -nan      -nan      -nan      -nan      -nan      -nan      -nan      -nan      -nan 
dram[28]:      -nan      -nan      -nan      -nan      -nan      -nan      -nan      -nan      -nan      -nan      -nan      -nan      -nan      -nan      -nan      -nan 
dram[29]:      -nan      -nan      -nan      -nan      -nan      -nan      -nan      -nan      -nan      -nan      -nan      -nan      -nan      -nan      -nan      -nan 
dram[30]:      -nan      -nan      -nan      -nan      -nan      -nan      -nan      -nan      -nan      -nan      -nan      -nan      -nan      -nan      -nan      -nan 
dram[31]:      -nan      -nan      -nan      -nan      -nan      -nan      -nan      -nan      -nan      -nan      -nan      -nan      -nan      -nan      -nan      -nan 
average row locality = 0/0 = -nan
number of total memory accesses made:
dram[0]:         0         0         0         0         0         0         0         0         0         0         0         0         0         0         0         0 
dram[1]:         0         0         0         0         0         0         0         0         0         0         0         0         0         0         0         0 
dram[2]:         0         0         0         0         0         0         0         0         0         0         0         0         0         0         0         0 
dram[3]:         0         0         0         0         0         0         0         0         0         0         0         0         0         0         0         0 
dram[4]:         0         0         0         0         0         0         0         0         0         0         0         0         0         0         0         0 
dram[5]:         0         0         0         0         0         0         0         0         0         0         0         0         0         0         0         0 
dram[6]:         0         0         0         0         0         0         0         0         0         0         0         0         0         0         0         0 
dram[7]:         0         0         0         0         0         0         0         0         0         0         0         0         0         0         0         0 
dram[8]:         0         0         0         0         0         0         0         0         0         0         0         0         0         0         0         0 
[...]
n_ref = 0 
n_req = 4037 
total_req = 5872 

Dual Bus Interface Util: 
issued_total_row = 2474 
issued_total_col = 5872 
Row_Bus_Util =  0.018053 
CoL_Bus_Util = 0.042848 
Either_Row_CoL_Bus_Util = 0.051451 
Issued_on_Two_Bus_Simul_Util = 0.009450 
issued_two_Eff = 0.183662 
queue_avg = 0.915880 


dram_util_bins: 0 0 0 0 0 0 0 0 0 0
dram_eff_bins: 0 0 0 0 0 0 0 0 0 0
mrqq: max=57 avg=0.91588
Memory Partition 28: 
Cache L2_bank_056:

Cache L2_bank_057:

In Dram Latency Queue (total = 0): 
DRAM[28]: 16 bks, busW=16 BL=2 CL=12, tRRD=3 tCCD=1, tRCD=12 tRAS=28 tRP=12 tRC=40
n_cmd=137042 n_nop=130024 n_act=1198 n_pre=1182 n_ref_event=0 n_req=4037 n_rd=3395 n_rd_L2_A=0 n_write=0 n_wr_bk=2476 bw_util=0.04284
n_activity=11401 dram_eff=0.515
bk0: 192a 133760i bk1: 192a 133437i bk2: 192a 133419i bk3: 192a 133593i bk4: 248a 132129i bk5: 248a 131901i bk6: 256a 132779i bk7: 256a 132409i bk8: 233a 132694i bk9: 233a 132576i bk10: 193a 133696i bk11: 192a 133342i bk12: 192a 133834i bk13: 192a 133581i bk14: 192a 133133i bk15: 192a 133600i 

------------------------------------------------------------------------

Row_Buffer_Locality = 0.703245
Row_Buffer_Locality_read = 0.788218
Row_Buffer_Locality_write = 0.253894
Bank_Level_Parallism = 6.081726
Bank_Level_Parallism_Col = 4.351946
Bank_Level_Parallism_Ready = 2.136774
write_to_read_ratio_blp_rw_average = 0.411164
GrpLevelPara = 2.629080 

BW Util details:
bwutil = 0.042841 
total_CMD = 137042 
util_bw = 5871 
Wasted_Col = 4382 
Wasted_Row = 735 
Idle = 126054 

BW Util Bottlenecks: 
RCDc_limit = 4140 
RCDWRc_limit = 1867 
WTRc_limit = 2200 
RTWc_limit = 6446 
CCDLc_limit = 2524 
rwq = 0 
CCDLc_limit_alone = 1872 
WTRc_limit_alone = 1981 
RTWc_limit_alone = 6013 

Commands details: 
total_CMD = 137042 
n_nop = 130024 
Read = 3395 
Write = 0 
L2_Alloc = 0 
L2_WB = 2476 
n_act = 1198 
n_pre = 1182 
n_ref = 0 
n_req = 4037 
total_req = 5871 

Dual Bus Interface Util: 
issued_total_row = 2380 
issued_total_col = 5871 
Row_Bus_Util =  0.017367 
CoL_Bus_Util = 0.042841 
Either_Row_CoL_Bus_Util = 0.051211 
Issued_on_Two_Bus_Simul_Util = 0.008997 
issued_two_Eff = 0.175691 
queue_avg = 1.017995 


dram_util_bins: 0 0 0 0 0 0 0 0 0 0
dram_eff_bins: 0 0 0 0 0 0 0 0 0 0
mrqq: max=64 avg=1.01799
Memory Partition 29: 
Cache L2_bank_058:

Cache L2_bank_059:

In Dram Latency Queue (total = 0): 
DRAM[29]: 16 bks, busW=16 BL=2 CL=12, tRRD=3 tCCD=1, tRCD=12 tRAS=28 tRP=12 tRC=40
n_cmd=137042 n_nop=130055 n_act=1212 n_pre=1196 n_ref_event=0 n_req=4036 n_rd=3396 n_rd_L2_A=0 n_write=0 n_wr_bk=2466 bw_util=0.04278
n_activity=11223 dram_eff=0.5223
bk0: 192a 133753i bk1: 192a 133634i bk2: 192a 133960i bk3: 192a 133521i bk4: 249a 132347i bk5: 249a 131676i bk6: 257a 132084i bk7: 256a 132306i bk8: 232a 132576i bk9: 233a 132231i bk10: 192a 133759i bk11: 192a 133811i bk12: 192a 133937i bk13: 192a 133436i bk14: 192a 133978i bk15: 192a 133807i 

------------------------------------------------------------------------

Row_Buffer_Locality = 0.699703
Row_Buffer_Locality_read = 0.785630
Row_Buffer_Locality_write = 0.243750
Bank_Level_Parallism = 6.069639
Bank_Level_Parallism_Col = 4.226646
Bank_Level_Parallism_Ready = 2.037018
write_to_read_ratio_blp_rw_average = 0.389573
GrpLevelPara = 2.631321 

BW Util details:
bwutil = 0.042775 
total_CMD = 137042 
util_bw = 5862 
Wasted_Col = 4427 
Wasted_Row = 567 
Idle = 126186 

BW Util Bottlenecks: 
RCDc_limit = 4108 
RCDWRc_limit = 1826 
WTRc_limit = 2842 
RTWc_limit = 6063 
CCDLc_limit = 2649 
rwq = 0 
CCDLc_limit_alone = 2000 
WTRc_limit_alone = 2543 
RTWc_limit_alone = 5713 

Commands details: 
total_CMD = 137042 
n_nop = 130055 
Read = 3396 
Write = 0 
L2_Alloc = 0 
L2_WB = 2466 
n_act = 1212 
n_pre = 1196 
n_ref = 0 
n_req = 4036 
total_req = 5862 

Dual Bus Interface Util: 
issued_total_row = 2408 
issued_total_col = 5862 
Row_Bus_Util =  0.017571 
CoL_Bus_Util = 0.042775 
Either_Row_CoL_Bus_Util = 0.050984 
Issued_on_Two_Bus_Simul_Util = 0.009362 
issued_two_Eff = 0.183627 
queue_avg = 0.933903 


dram_util_bins: 0 0 0 0 0 0 0 0 0 0
dram_eff_bins: 0 0 0 0 0 0 0 0 0 0
mrqq: max=59 avg=0.933903
Memory Partition 30: 
Cache L2_bank_060:

Cache L2_bank_061:

In Dram Latency Queue (total = 0): 
DRAM[30]: 16 bks, busW=16 BL=2 CL=12, tRRD=3 tCCD=1, tRCD=12 tRAS=28 tRP=12 tRC=40
n_cmd=137042 n_nop=130050 n_act=1201 n_pre=1185 n_ref_event=0 n_req=4039 n_rd=3395 n_rd_L2_A=0 n_write=0 n_wr_bk=2480 bw_util=0.04287
n_activity=11400 dram_eff=0.5154
bk0: 192a 133462i bk1: 192a 133405i bk2: 193a 133897i bk3: 193a 133884i bk4: 248a 132399i bk5: 249a 131805i bk6: 256a 131899i bk7: 256a 132519i bk8: 232a 132978i bk9: 232a 132517i bk10: 192a 133510i bk11: 192a 133568i bk12: 192a 133735i bk13: 192a 133562i bk14: 192a 133877i bk15: 192a 133866i 

------------------------------------------------------------------------

Row_Buffer_Locality = 0.702649
Row_Buffer_Locality_read = 0.794698
Row_Buffer_Locality_write = 0.217391
Bank_Level_Parallism = 6.053149
Bank_Level_Parallism_Col = 4.314698
Bank_Level_Parallism_Ready = 2.060255
write_to_read_ratio_blp_rw_average = 0.395519
GrpLevelPara = 2.628309 

BW Util details:
bwutil = 0.042870 
total_CMD = 137042 
util_bw = 5875 
Wasted_Col = 4322 
Wasted_Row = 678 
Idle = 126167 

BW Util Bottlenecks: 
RCDc_limit = 3865 
RCDWRc_limit = 1943 
WTRc_limit = 2767 
RTWc_limit = 6235 
CCDLc_limit = 2577 
rwq = 0 
CCDLc_limit_alone = 1991 
WTRc_limit_alone = 2488 
RTWc_limit_alone = 5928 

Commands details: 
total_CMD = 137042 
n_nop = 130050 
Read = 3395 
Write = 0 
L2_Alloc = 0 
L2_WB = 2480 
n_act = 1201 
n_pre = 1185 
n_ref = 0 
n_req = 4039 
total_req = 5875 

Dual Bus Interface Util: 
issued_total_row = 2386 
issued_total_col = 5875 
Row_Bus_Util =  0.017411 
CoL_Bus_Util = 0.042870 
Either_Row_CoL_Bus_Util = 0.051021 
Issued_on_Two_Bus_Simul_Util = 0.009260 
issued_two_Eff = 0.181493 
queue_avg = 0.952934 


dram_util_bins: 0 0 0 0 0 0 0 0 0 0
dram_eff_bins: 0 0 0 0 0 0 0 0 0 0
mrqq: max=51 avg=0.952934
Memory Partition 31: 
Cache L2_bank_062:

Cache L2_bank_063:

In Dram Latency Queue (total = 0): 
DRAM[31]: 16 bks, busW=16 BL=2 CL=12, tRRD=3 tCCD=1, tRCD=12 tRAS=28 tRP=12 tRC=40
n_cmd=137042 n_nop=130034 n_act=1227 n_pre=1211 n_ref_event=0 n_req=4039 n_rd=3395 n_rd_L2_A=0 n_write=0 n_wr_bk=2486 bw_util=0.04291
n_activity=11555 dram_eff=0.509
bk0: 192a 133247i bk1: 193a 133638i bk2: 192a 133449i bk3: 192a 133526i bk4: 248a 132423i bk5: 248a 132102i bk6: 256a 132450i bk7: 256a 132536i bk8: 232a 133369i bk9: 232a 132733i bk10: 192a 133800i bk11: 192a 133333i bk12: 192a 133949i bk13: 192a 134004i bk14: 193a 133122i bk15: 193a 133963i 

------------------------------------------------------------------------

Row_Buffer_Locality = 0.696212
Row_Buffer_Locality_read = 0.784389
Row_Buffer_Locality_write = 0.231366
Bank_Level_Parallism = 5.866649
Bank_Level_Parallism_Col = 4.123420
Bank_Level_Parallism_Ready = 2.040639
write_to_read_ratio_blp_rw_average = 0.388095
GrpLevelPara = 2.558063 

BW Util details:
bwutil = 0.042914 
total_CMD = 137042 
util_bw = 5881 
Wasted_Col = 4482 
Wasted_Row = 728 
Idle = 125951 

BW Util Bottlenecks: 
RCDc_limit = 4145 
RCDWRc_limit = 1880 
WTRc_limit = 2569 
RTWc_limit = 5638 
CCDLc_limit = 2477 
rwq = 0 
CCDLc_limit_alone = 1926 
WTRc_limit_alone = 2320 
RTWc_limit_alone = 5336 

Commands details: 
total_CMD = 137042 
n_nop = 130034 
Read = 3395 
Write = 0 
L2_Alloc = 0 
L2_WB = 2486 
n_act = 1227 
n_pre = 1211 
n_ref = 0 
n_req = 4039 
total_req = 5881 

Dual Bus Interface Util: 
issued_total_row = 2438 
issued_total_col = 5881 
Row_Bus_Util =  0.017790 
CoL_Bus_Util = 0.042914 
Either_Row_CoL_Bus_Util = 0.051138 
Issued_on_Two_Bus_Simul_Util = 0.009566 
issued_two_Eff = 0.187072 
queue_avg = 0.887582 


dram_util_bins: 0 0 0 0 0 0 0 0 0 0
dram_eff_bins: 0 0 0 0 0 0 0 0 0 0
mrqq: max=60 avg=0.887582

========= L2 cache stats =========
L2_cache_bank[0]: Access = 33120, Miss = 31320, Miss_rate = 0.946, Pending_hits = 0, Reservation_fails = 0
L2_cache_bank[1]: Access = 33520, Miss = 31334, Miss_rate = 0.935, Pending_hits = 0, Reservation_fails = 0
L2_cache_bank[2]: Access = 33110, Miss = 31321, Miss_rate = 0.946, Pending_hits = 0, Reservation_fails = 0
L2_cache_bank[3]: Access = 33402, Miss = 31319, Miss_rate = 0.938, Pending_hits = 0, Reservation_fails = 0
L2_cache_bank[4]: Access = 33149, Miss = 31327, Miss_rate = 0.945, Pending_hits = 0, Reservation_fails = 0
L2_cache_bank[5]: Access = 33493, Miss = 31320, Miss_rate = 0.935, Pending_hits = 0, Reservation_fails = 0
L2_cache_bank[6]: Access = 33211, Miss = 31320, Miss_rate = 0.943, Pending_hits = 0, Reservation_fails = 0
L2_cache_bank[7]: Access = 33461, Miss = 31321, Miss_rate = 0.936, Pending_hits = 0, Reservation_fails = 0
L2_cache_bank[8]: Access = 33226, Miss = 31319, Miss_rate = 0.943, Pending_hits = 0, Reservation_fails = 0
L2_cache_bank[9]: Access = 33508, Miss = 31328, Miss_rate = 0.935, Pending_hits = 0, Reservation_fails = 0
L2_cache_bank[10]: Access = 33164, Miss = 31320, Miss_rate = 0.944, Pending_hits = 0, Reservation_fails = 0
L2_cache_bank[11]: Access = 33418, Miss = 31320, Miss_rate = 0.937, Pending_hits = 0, Reservation_fails = 0
L2_cache_bank[12]: Access = 32995, Miss = 31321, Miss_rate = 0.949, Pending_hits = 0, Reservation_fails = 0
L2_cache_bank[13]: Access = 33333, Miss = 31320, Miss_rate = 0.940, Pending_hits = 0, Reservation_fails = 0
L2_cache_bank[14]: Access = 33120, Miss = 31328, Miss_rate = 0.946, Pending_hits = 0, Reservation_fails = 0
L2_cache_bank[15]: Access = 33442, Miss = 31312, Miss_rate = 0.936, Pending_hits = 0, Reservation_fails = 0
L2_cache_bank[16]: Access = 33165, Miss = 31320, Miss_rate = 0.944, Pending_hits = 0, Reservation_fails = 0
L2_cache_bank[17]: Access = 33482, Miss = 31327, Miss_rate = 0.936, Pending_hits = 0, Reservation_fails = 0
L2_cache_bank[18]: Access = 33154, Miss = 31320, Miss_rate = 0.945, Pending_hits = 0, Reservation_fails = 0
L2_cache_bank[19]: Access = 33118, Miss = 31326, Miss_rate = 0.946, Pending_hits = 0, Reservation_fails = 0
L2_cache_bank[20]: Access = 33205, Miss = 31321, Miss_rate = 0.943, Pending_hits = 0, Reservation_fails = 0
L2_cache_bank[21]: Access = 32933, Miss = 31319, Miss_rate = 0.951, Pending_hits = 0, Reservation_fails = 0
L2_cache_bank[22]: Access = 33158, Miss = 31334, Miss_rate = 0.945, Pending_hits = 0, Reservation_fails = 0
L2_cache_bank[23]: Access = 32902, Miss = 31321, Miss_rate = 0.952, Pending_hits = 0, Reservation_fails = 0
L2_cache_bank[24]: Access = 33251, Miss = 31312, Miss_rate = 0.942, Pending_hits = 0, Reservation_fails = 0
L2_cache_bank[25]: Access = 32909, Miss = 31321, Miss_rate = 0.952, Pending_hits = 0, Reservation_fails = 0
L2_cache_bank[26]: Access = 33284, Miss = 31320, Miss_rate = 0.941, Pending_hits = 0, Reservation_fails = 0
L2_cache_bank[27]: Access = 32961, Miss = 31328, Miss_rate = 0.950, Pending_hits = 0, Reservation_fails = 0
L2_cache_bank[28]: Access = 33240, Miss = 31320, Miss_rate = 0.942, Pending_hits = 0, Reservation_fails = 0
L2_cache_bank[29]: Access = 32997, Miss = 31320, Miss_rate = 0.949, Pending_hits = 0, Reservation_fails = 0
L2_cache_bank[30]: Access = 33310, Miss = 31217, Miss_rate = 0.937, Pending_hits = 0, Reservation_fails = 0
L2_cache_bank[31]: Access = 33001, Miss = 31320, Miss_rate = 0.949, Pending_hits = 0, Reservation_fails = 0
L2_cache_bank[32]: Access = 33227, Miss = 31185, Miss_rate = 0.939, Pending_hits = 0, Reservation_fails = 0
L2_cache_bank[33]: Access = 32951, Miss = 31313, Miss_rate = 0.950, Pending_hits = 0, Reservation_fails = 0
L2_cache_bank[34]: Access = 33236, Miss = 31184, Miss_rate = 0.938, Pending_hits = 0, Reservation_fails = 0
L2_cache_bank[35]: Access = 32992, Miss = 31334, Miss_rate = 0.950, Pending_hits = 0, Reservation_fails = 0
L2_cache_bank[36]: Access = 33209, Miss = 31185, Miss_rate = 0.939, Pending_hits = 0, Reservation_fails = 0
L2_cache_bank[37]: Access = 32948, Miss = 31319, Miss_rate = 0.951, Pending_hits = 0, Reservation_fails = 0
L2_cache_bank[38]: Access = 33180, Miss = 31192, Miss_rate = 0.940, Pending_hits = 0, Reservation_fails = 0
L2_cache_bank[39]: Access = 33008, Miss = 31319, Miss_rate = 0.949, Pending_hits = 0, Reservation_fails = 0
L2_cache_bank[40]: Access = 33372, Miss = 31293, Miss_rate = 0.938, Pending_hits = 0, Reservation_fails = 0
L2_cache_bank[41]: Access = 33017, Miss = 31321, Miss_rate = 0.949, Pending_hits = 0, Reservation_fails = 0
L2_cache_bank[42]: Access = 33430, Miss = 31302, Miss_rate = 0.936, Pending_hits = 0, Reservation_fails = 0
L2_cache_bank[43]: Access = 33020, Miss = 31328, Miss_rate = 0.949, Pending_hits = 0, Reservation_fails = 0
L2_cache_bank[44]: Access = 33434, Miss = 31310, Miss_rate = 0.936, Pending_hits = 0, Reservation_fails = 0
L2_cache_bank[45]: Access = 33012, Miss = 31320, Miss_rate = 0.949, Pending_hits = 0, Reservation_fails = 0
L2_cache_bank[46]: Access = 33448, Miss = 31317, Miss_rate = 0.936, Pending_hits = 0, Reservation_fails = 0
L2_cache_bank[47]: Access = 33011, Miss = 31320, Miss_rate = 0.949, Pending_hits = 0, Reservation_fails = 0
L2_cache_bank[48]: Access = 33411, Miss = 31316, Miss_rate = 0.937, Pending_hits = 0, Reservation_fails = 0
L2_cache_bank[49]: Access = 33067, Miss = 31320, Miss_rate = 0.947, Pending_hits = 0, Reservation_fails = 0
L2_cache_bank[50]: Access = 33383, Miss = 31311, Miss_rate = 0.938, Pending_hits = 0, Reservation_fails = 0
L2_cache_bank[51]: Access = 33166, Miss = 31320, Miss_rate = 0.944, Pending_hits = 0, Reservation_fails = 0
L2_cache_bank[52]: Access = 33439, Miss = 31317, Miss_rate = 0.937, Pending_hits = 0, Reservation_fails = 0
L2_cache_bank[53]: Access = 33142, Miss = 31326, Miss_rate = 0.945, Pending_hits = 0, Reservation_fails = 0
L2_cache_bank[54]: Access = 33463, Miss = 31321, Miss_rate = 0.936, Pending_hits = 0, Reservation_fails = 0
L2_cache_bank[55]: Access = 33063, Miss = 31319, Miss_rate = 0.947, Pending_hits = 0, Reservation_fails = 0
L2_cache_bank[56]: Access = 33441, Miss = 31328, Miss_rate = 0.937, Pending_hits = 0, Reservation_fails = 0
L2_cache_bank[57]: Access = 33097, Miss = 31320, Miss_rate = 0.946, Pending_hits = 0, Reservation_fails = 0
L2_cache_bank[58]: Access = 33412, Miss = 31320, Miss_rate = 0.937, Pending_hits = 0, Reservation_fails = 0
L2_cache_bank[59]: Access = 33164, Miss = 31321, Miss_rate = 0.944, Pending_hits = 0, Reservation_fails = 0
L2_cache_bank[60]: Access = 33360, Miss = 31313, Miss_rate = 0.939, Pending_hits = 0, Reservation_fails = 0
L2_cache_bank[61]: Access = 33136, Miss = 31329, Miss_rate = 0.945, Pending_hits = 0, Reservation_fails = 0
L2_cache_bank[62]: Access = 33435, Miss = 31320, Miss_rate = 0.937, Pending_hits = 0, Reservation_fails = 0
L2_cache_bank[63]: Access = 33141, Miss = 31320, Miss_rate = 0.945, Pending_hits = 0, Reservation_fails = 0
L2_total_cache_accesses = 2125557
L2_total_cache_misses = 2003859
L2_total_cache_miss_rate = 0.9427
L2_total_cache_pending_hits = 0
L2_total_cache_reservation_fails = 0
L2_total_cache_breakdown:
	L2_cache_stats_breakdown[GLOBAL_ACC_R][HIT] = 59586
	L2_cache_stats_breakdown[GLOBAL_ACC_R][HIT_RESERVED] = 0
	L2_cache_stats_breakdown[GLOBAL_ACC_R][MISS] = 6952
	L2_cache_stats_breakdown[GLOBAL_ACC_R][RESERVATION_FAIL] = 0
	L2_cache_stats_breakdown[GLOBAL_ACC_R][SECTOR_MISS] = 101651
	L2_cache_stats_breakdown[LOCAL_ACC_R][HIT] = 0
	L2_cache_stats_breakdown[LOCAL_ACC_R][HIT_RESERVED] = 0
	L2_cache_stats_breakdown[LOCAL_ACC_R][MISS] = 0
	L2_cache_stats_breakdown[LOCAL_ACC_R][RESERVATION_FAIL] = 0
	L2_cache_stats_breakdown[LOCAL_ACC_R][SECTOR_MISS] = 0
	L2_cache_stats_breakdown[CONST_ACC_R][HIT] = 0
	L2_cache_stats_breakdown[CONST_ACC_R][HIT_RESERVED] = 0
	L2_cache_stats_breakdown[CONST_ACC_R][MISS] = 0
	L2_cache_stats_breakdown[CONST_ACC_R][RESERVATION_FAIL] = 0
	L2_cache_stats_breakdown[CONST_ACC_R][SECTOR_MISS] = 0
	L2_cache_stats_breakdown[TEXTURE_ACC_R][HIT] = 62112
	L2_cache_stats_breakdown[TEXTURE_ACC_R][HIT_RESERVED] = 0
	L2_cache_stats_breakdown[TEXTURE_ACC_R][MISS] = 0
	L2_cache_stats_breakdown[TEXTURE_ACC_R][RESERVATION_FAIL] = 0
	L2_cache_stats_breakdown[TEXTURE_ACC_R][SECTOR_MISS] = 0
	L2_cache_stats_breakdown[GLOBAL_ACC_W][HIT] = 0
	L2_cache_stats_breakdown[GLOBAL_ACC_W][HIT_RESERVED] = 0
	L2_cache_stats_breakdown[GLOBAL_ACC_W][MISS] = 62767
	L2_cache_stats_breakdown[GLOBAL_ACC_W][RESERVATION_FAIL] = 0
	L2_cache_stats_breakdown[GLOBAL_ACC_W][SECTOR_MISS] = 1832489
	L2_cache_stats_breakdown[LOCAL_ACC_W][HIT] = 0
	L2_cache_stats_breakdown[LOCAL_ACC_W][HIT_RESERVED] = 0
	L2_cache_stats_breakdown[LOCAL_ACC_W][MISS] = 0
	L2_cache_stats_breakdown[LOCAL_ACC_W][RESERVATION_FAIL] = 0
	L2_cache_stats_breakdown[LOCAL_ACC_W][SECTOR_MISS] = 0
	L2_cache_stats_breakdown[L1_WRBK_ACC][HIT] = 0
	L2_cache_stats_breakdown[L1_WRBK_ACC][HIT_RESERVED] = 0
	L2_cache_stats_breakdown[L1_WRBK_ACC][MISS] = 0
	L2_cache_stats_breakdown[L1_WRBK_ACC][RESERVATION_FAIL] = 0
	L2_cache_stats_breakdown[L1_WRBK_ACC][SECTOR_MISS] = 0
	L2_cache_stats_breakdown[L2_WRBK_ACC][HIT] = 0
	L2_cache_stats_breakdown[L2_WRBK_ACC][HIT_RESERVED] = 0
	L2_cache_stats_breakdown[L2_WRBK_ACC][MISS] = 0
	L2_cache_stats_breakdown[L2_WRBK_ACC][RESERVATION_FAIL] = 0
	L2_cache_stats_breakdown[L2_WRBK_ACC][SECTOR_MISS] = 0
	L2_cache_stats_breakdown[INST_ACC_R][HIT] = 0
	L2_cache_stats_breakdown[INST_ACC_R][HIT_RESERVED] = 0
	L2_cache_stats_breakdown[INST_ACC_R][MISS] = 0
	L2_cache_stats_breakdown[INST_ACC_R][RESERVATION_FAIL] = 0
	L2_cache_stats_breakdown[INST_ACC_R][SECTOR_MISS] = 0
	L2_cache_stats_breakdown[L1_WR_ALLOC_R][HIT] = 0
	L2_cache_stats_breakdown[L1_WR_ALLOC_R][HIT_RESERVED] = 0
	L2_cache_stats_breakdown[L1_WR_ALLOC_R][MISS] = 0
	L2_cache_stats_breakdown[L1_WR_ALLOC_R][RESERVATION_FAIL] = 0
	L2_cache_stats_breakdown[L1_WR_ALLOC_R][SECTOR_MISS] = 0
	L2_cache_stats_breakdown[L2_WR_ALLOC_R][HIT] = 0
	L2_cache_stats_breakdown[L2_WR_ALLOC_R][HIT_RESERVED] = 0
	L2_cache_stats_breakdown[L2_WR_ALLOC_R][MISS] = 0
	L2_cache_stats_breakdown[L2_WR_ALLOC_R][RESERVATION_FAIL] = 0
	L2_cache_stats_breakdown[L2_WR_ALLOC_R][SECTOR_MISS] = 0
	L2_cache_stats_breakdown[GLOBAL_ACC_R][TOTAL_ACCESS] = 168189
	L2_cache_stats_breakdown[TEXTURE_ACC_R][TOTAL_ACCESS] = 62112
	L2_cache_stats_breakdown[GLOBAL_ACC_W][TOTAL_ACCESS] = 1895256
L2_total_cache_reservation_fail_breakdown:
L2_cache_data_port_util = 0.015
L2_cache_fill_port_util = 0.009

icnt_total_pkts_mem_to_simt=2328309
icnt_total_pkts_simt_to_mem=2281725
LD_mem_lat_dist  0 0 0 0 0 0 0 0 0 0 0 0 0 0 0 0 0 0 0 0 0 0 0 0 0 0 0
ST_mem_lat_dist  0 0 0 0 0 0 0 0 0 0 0 0 0 0 0 0 0 0 0 0 0 0 0 0 0 0 0
----------------------------Interconnect-DETAILS--------------------------------
Req_Network_injected_packets_num = 2281725
Req_Network_cycles = 182508
Req_Network_injected_packets_per_cycle =      12.5021 
Req_Network_conflicts_per_cycle =       3.6227
Req_Network_conflicts_per_cycle_util =       4.0986
Req_Bank_Level_Parallism =      14.1445
Req_Network_in_buffer_full_per_cycle =       0.0000
Req_Network_in_buffer_avg_util =       2.0315
Req_Network_out_buffer_full_per_cycle =       0.0000
Req_Network_out_buffer_avg_util =       0.1953

Reply_Network_injected_packets_num = 2328309
Reply_Network_cycles = 182508
Reply_Network_injected_packets_per_cycle =       12.7573
Reply_Network_conflicts_per_cycle =        7.3283
Reply_Network_conflicts_per_cycle_util =       8.2152
Reply_Bank_Level_Parallism =      14.3014
Reply_Network_in_buffer_full_per_cycle =       0.0061
Reply_Network_in_buffer_avg_util =       4.0625
Reply_Network_out_buffer_full_per_cycle =       0.0000
Reply_Network_out_buffer_avg_util =       0.1595
----------------------------END-of-Interconnect-DETAILS-------------------------


gpgpu_simulation_time = 0 days, 0 hrs, 25 min, 47 sec (1547 sec)
gpgpu_simulation_rate = 155642 (inst/sec)
gpgpu_simulation_rate = 117 (cycle/sec)
gpgpu_silicon_slowdown = 9675213x
GPGPU-Sim: synchronize waiting for inactive GPU simulation
GPGPU-Sim API: Stream Manager State
GPGPU-Sim: detected inactive GPU simulation thread
GPGPU-Sim: *** exit detected ***
