

        *** GPGPU-Sim Simulator Version 4.0.0  [build gpgpu-sim_git-commit-ffe0a1a00e984ecce9bf36e17ab94c4de0de8108_modified_0.0] ***


GPGPU-Sim PTX: simulation mode 0 (can change with PTX_SIM_MODE_FUNC environment variable:
               1=functional simulation only, 0=detailed performance simulator)
GPGPU-Sim PTX: overriding embedded ptx with ptx file (PTX_SIM_USE_PTX_FILE is set)
GPGPU-Sim: Configuration options:

-save_embedded_ptx                      0 # saves ptx files embedded in binary as <n>.ptx
-keep                                   0 # keep intermediate files created by GPGPU-Sim when interfacing with external programs
-gpgpu_ptx_save_converted_ptxplus                    0 # Saved converted ptxplus to a file
-gpgpu_occupancy_sm_number                   70 # The SM number to pass to ptxas when getting register usage for computing GPU occupancy. This parameter is required in the config.
-ptx_opcode_latency_int      4,13,4,5,145,21 # Opcode latencies for integers <ADD,MAX,MUL,MAD,DIV,SHFL>Default 1,1,19,25,145,32
-ptx_opcode_latency_fp          4,13,4,5,39 # Opcode latencies for single precision floating points <ADD,MAX,MUL,MAD,DIV>Default 1,1,1,1,30
-ptx_opcode_latency_dp         8,19,8,8,330 # Opcode latencies for double precision floating points <ADD,MAX,MUL,MAD,DIV>Default 8,8,8,8,335
-ptx_opcode_latency_sfu                  100 # Opcode latencies for SFU instructionsDefault 8
-ptx_opcode_latency_tesnor                   64 # Opcode latencies for Tensor instructionsDefault 64
-ptx_opcode_initiation_int          2,2,2,2,8,4 # Opcode initiation intervals for integers <ADD,MAX,MUL,MAD,DIV,SHFL>Default 1,1,4,4,32,4
-ptx_opcode_initiation_fp            2,2,2,2,4 # Opcode initiation intervals for single precision floating points <ADD,MAX,MUL,MAD,DIV>Default 1,1,1,1,5
-ptx_opcode_initiation_dp          4,4,4,4,130 # Opcode initiation intervals for double precision floating points <ADD,MAX,MUL,MAD,DIV>Default 8,8,8,8,130
-ptx_opcode_initiation_sfu                    8 # Opcode initiation intervals for sfu instructionsDefault 8
-ptx_opcode_initiation_tensor                   64 # Opcode initiation intervals for tensor instructionsDefault 64
-cdp_latency         7200,8000,100,12000,1600 # CDP API latency <cudaStreamCreateWithFlags, cudaGetParameterBufferV2_init_perWarp, cudaGetParameterBufferV2_perKernel, cudaLaunchDeviceV2_init_perWarp, cudaLaunchDevicV2_perKernel>Default 7200,8000,100,12000,1600
-network_mode                           2 # Interconnection network mode
-inter_config_file                   mesh # Interconnection network config file
-icnt_in_buffer_limit                  512 # in_buffer_limit
-icnt_out_buffer_limit                  512 # out_buffer_limit
-icnt_subnets                           2 # subnets
-icnt_arbiter_algo                      1 # arbiter_algo
-icnt_verbose                           0 # inct_verbose
-icnt_grant_cycles                      1 # grant_cycles
-gpgpu_ptx_use_cuobjdump                    1 # Use cuobjdump to extract ptx and sass from binaries
-gpgpu_experimental_lib_support                    0 # Try to extract code from cuda libraries [Broken because of unknown cudaGetExportTable]
-checkpoint_option                      0 #  checkpointing flag (0 = no checkpoint)
-checkpoint_kernel                      1 #  checkpointing during execution of which kernel (1- 1st kernel)
-checkpoint_CTA                         0 #  checkpointing after # of CTA (< less than total CTA)
-resume_option                          0 #  resume flag (0 = no resume)
-resume_kernel                          0 #  Resume from which kernel (1= 1st kernel)
-resume_CTA                             0 #  resume from which CTA 
-checkpoint_CTA_t                       0 #  resume from which CTA 
-checkpoint_insn_Y                      0 #  resume from which CTA 
-gpgpu_ptx_convert_to_ptxplus                    0 # Convert SASS (native ISA) to ptxplus and run ptxplus
-gpgpu_ptx_force_max_capability                   70 # Force maximum compute capability
-gpgpu_ptx_inst_debug_to_file                    0 # Dump executed instructions' debug information to file
-gpgpu_ptx_inst_debug_file       inst_debug.txt # Executed instructions' debug output file
-gpgpu_ptx_inst_debug_thread_uid                    1 # Thread UID for executed instructions' debug output
-gpgpu_n_mem_for_l2wb_pcommit                   32 # number of memory modules (e.g. memory controllers) in gpu
-gpgpu_n_sub_partition_per_mchannel_for_l2wb_pcommit                    2 # number of memory subpartition in each memory module
-gpgpu_dl2_bsize_for_l2wb_pcommit                  128 # default 128 bytes
-gpgpu_simd_model                       1 # 1 = post-dominator
-gpgpu_shader_core_pipeline              2048:32 # shader core pipeline config, i.e., {<nthread>:<warpsize>}
-gpgpu_tex_cache:l1  N:4:128:256,L:R:m:N:L,T:512:8,128:2 # per-shader L1 texture cache  (READ-ONLY) config  {<nsets>:<bsize>:<assoc>,<rep>:<wr>:<alloc>:<wr_alloc>,<mshr>:<N>:<merge>,<mq>:<rf>}
-gpgpu_const_cache:l1 N:128:64:8,L:R:f:N:L,S:2:64,4 # per-shader L1 constant memory cache  (READ-ONLY) config  {<nsets>:<bsize>:<assoc>,<rep>:<wr>:<alloc>:<wr_alloc>,<mshr>:<N>:<merge>,<mq>} 
-gpgpu_cache:il1     N:64:128:16,L:R:f:N:L,S:2:48,4 # shader L1 instruction cache config  {<nsets>:<bsize>:<assoc>,<rep>:<wr>:<alloc>:<wr_alloc>,<mshr>:<N>:<merge>,<mq>} 
-gpgpu_cache:dl1     S:1:128:256,L:L:s:N:L,A:256:8,16:0,32 # per-shader L1 data cache config  {<nsets>:<bsize>:<assoc>,<rep>:<wr>:<alloc>:<wr_alloc>,<mshr>:<N>:<merge>,<mq> | none}
-gpgpu_l1_banks                         4 # The number of L1 cache banks
-gpgpu_l1_banks_byte_interleaving                   32 # l1 banks byte interleaving granularity
-gpgpu_l1_banks_hashing_function                    0 # l1 banks hashing function
-gpgpu_l1_latency                      20 # L1 Hit Latency
-gpgpu_smem_latency                    20 # smem Latency
-gpgpu_cache:dl1PrefL1                 none # per-shader L1 data cache config  {<nsets>:<bsize>:<assoc>,<rep>:<wr>:<alloc>:<wr_alloc>,<mshr>:<N>:<merge>,<mq> | none}
-gpgpu_cache:dl1PrefShared                 none # per-shader L1 data cache config  {<nsets>:<bsize>:<assoc>,<rep>:<wr>:<alloc>:<wr_alloc>,<mshr>:<N>:<merge>,<mq> | none}
-gpgpu_gmem_skip_L1D                    0 # global memory access skip L1D cache (implements -Xptxas -dlcm=cg, default=no skip)
-gpgpu_perfect_mem                      0 # enable perfect memory mode (no cache miss)
-n_regfile_gating_group                    4 # group of lanes that should be read/written together)
-gpgpu_clock_gated_reg_file                    0 # enable clock gated reg file for power calculations
-gpgpu_clock_gated_lanes                    0 # enable clock gated lanes for power calculations
-gpgpu_shader_registers                65536 # Number of registers per shader core. Limits number of concurrent CTAs. (default 8192)
-gpgpu_registers_per_block                65536 # Maximum number of registers per CTA. (default 8192)
-gpgpu_ignore_resources_limitation                    0 # gpgpu_ignore_resources_limitation (default 0)
-gpgpu_shader_cta                      32 # Maximum number of concurrent CTAs in shader (default 8)
-gpgpu_num_cta_barriers                   16 # Maximum number of named barriers per CTA (default 16)
-gpgpu_n_clusters                      80 # number of processing clusters
-gpgpu_n_cores_per_cluster                    1 # number of simd cores per cluster
-gpgpu_n_cluster_ejection_buffer_size                   32 # number of packets in ejection buffer
-gpgpu_n_ldst_response_buffer_size                    2 # number of response packets in ld/st unit ejection buffer
-gpgpu_shmem_per_block                65536 # Size of shared memory per thread block or CTA (default 48kB)
-gpgpu_shmem_size                   98304 # Size of shared memory per shader core (default 16kB)
-gpgpu_adaptive_cache_config            536870913 # adaptive_cache_config
-gpgpu_shmem_sizeDefault                98304 # Size of shared memory per shader core (default 16kB)
-gpgpu_shmem_size_PrefL1                16384 # Size of shared memory per shader core (default 16kB)
-gpgpu_shmem_size_PrefShared                16384 # Size of shared memory per shader core (default 16kB)
-gpgpu_shmem_num_banks                   32 # Number of banks in the shared memory in each shader core (default 16)
-gpgpu_shmem_limited_broadcast                    0 # Limit shared memory to do one broadcast per cycle (default on)
-gpgpu_shmem_warp_parts                    1 # Number of portions a warp is divided into for shared memory bank conflict check 
-gpgpu_mem_unit_ports                    1 # The number of memory transactions allowed per core cycle
-gpgpu_shmem_warp_parts                    1 # Number of portions a warp is divided into for shared memory bank conflict check 
-gpgpu_warpdistro_shader                   -1 # Specify which shader core to collect the warp size distribution from
-gpgpu_warp_issue_shader                    0 # Specify which shader core to collect the warp issue distribution from
-gpgpu_local_mem_map                    1 # Mapping from local memory space address to simulated GPU physical address space (default = enabled)
-gpgpu_num_reg_banks                   16 # Number of register banks (default = 8)
-gpgpu_reg_bank_use_warp_id                    0 # Use warp ID in mapping registers to banks (default = off)
-gpgpu_sub_core_model                    1 # Sub Core Volta/Pascal model (default = off)
-gpgpu_enable_specialized_operand_collector                    0 # enable_specialized_operand_collector
-gpgpu_operand_collector_num_units_sp                    4 # number of collector units (default = 4)
-gpgpu_operand_collector_num_units_dp                    0 # number of collector units (default = 0)
-gpgpu_operand_collector_num_units_sfu                    4 # number of collector units (default = 4)
-gpgpu_operand_collector_num_units_int                    0 # number of collector units (default = 0)
-gpgpu_operand_collector_num_units_tensor_core                    4 # number of collector units (default = 4)
-gpgpu_operand_collector_num_units_mem                    2 # number of collector units (default = 2)
-gpgpu_operand_collector_num_units_gen                    8 # number of collector units (default = 0)
-gpgpu_operand_collector_num_in_ports_sp                    1 # number of collector unit in ports (default = 1)
-gpgpu_operand_collector_num_in_ports_dp                    0 # number of collector unit in ports (default = 0)
-gpgpu_operand_collector_num_in_ports_sfu                    1 # number of collector unit in ports (default = 1)
-gpgpu_operand_collector_num_in_ports_int                    0 # number of collector unit in ports (default = 0)
-gpgpu_operand_collector_num_in_ports_tensor_core                    1 # number of collector unit in ports (default = 1)
-gpgpu_operand_collector_num_in_ports_mem                    1 # number of collector unit in ports (default = 1)
-gpgpu_operand_collector_num_in_ports_gen                    8 # number of collector unit in ports (default = 0)
-gpgpu_operand_collector_num_out_ports_sp                    1 # number of collector unit in ports (default = 1)
-gpgpu_operand_collector_num_out_ports_dp                    0 # number of collector unit in ports (default = 0)
-gpgpu_operand_collector_num_out_ports_sfu                    1 # number of collector unit in ports (default = 1)
-gpgpu_operand_collector_num_out_ports_int                    0 # number of collector unit in ports (default = 0)
-gpgpu_operand_collector_num_out_ports_tensor_core                    1 # number of collector unit in ports (default = 1)
-gpgpu_operand_collector_num_out_ports_mem                    1 # number of collector unit in ports (default = 1)
-gpgpu_operand_collector_num_out_ports_gen                    8 # number of collector unit in ports (default = 0)
-gpgpu_coalesce_arch                   60 # Coalescing arch (GT200 = 13, Fermi = 20)
-gpgpu_num_sched_per_core                    4 # Number of warp schedulers per core
-gpgpu_max_insn_issue_per_warp                    1 # Max number of instructions that can be issued per warp in one cycle by scheduler (either 1 or 2)
-gpgpu_dual_issue_diff_exec_units                    1 # should dual issue use two different execution unit resources (Default = 1)
-gpgpu_simt_core_sim_order                    1 # Select the simulation order of cores in a cluster (0=Fix, 1=Round-Robin)
-gpgpu_pipeline_widths 4,4,4,4,4,4,4,4,4,4,8,4,4 # Pipeline widths ID_OC_SP,ID_OC_DP,ID_OC_INT,ID_OC_SFU,ID_OC_MEM,OC_EX_SP,OC_EX_DP,OC_EX_INT,OC_EX_SFU,OC_EX_MEM,EX_WB,ID_OC_TENSOR_CORE,OC_EX_TENSOR_CORE
-gpgpu_tensor_core_avail                    1 # Tensor Core Available (default=0)
-gpgpu_num_sp_units                     4 # Number of SP units (default=1)
-gpgpu_num_dp_units                     4 # Number of DP units (default=0)
-gpgpu_num_int_units                    4 # Number of INT units (default=0)
-gpgpu_num_sfu_units                    4 # Number of SF units (default=1)
-gpgpu_num_tensor_core_units                    4 # Number of tensor_core units (default=1)
-gpgpu_num_mem_units                    1 # Number if ldst units (default=1) WARNING: not hooked up to anything
-gpgpu_scheduler                      gto # Scheduler configuration: < lrr | gto | two_level_active > If two_level_active:<num_active_warps>:<inner_prioritization>:<outer_prioritization>For complete list of prioritization values see shader.h enum scheduler_prioritization_typeDefault: gto
-gpgpu_concurrent_kernel_sm                    0 # Support concurrent kernels on a SM (default = disabled)
-gpgpu_perfect_inst_const_cache                    1 # perfect inst and const cache mode, so all inst and const hits in the cache(default = disabled)
-gpgpu_inst_fetch_throughput                    4 # the number of fetched intruction per warp each cycle
-gpgpu_reg_file_port_throughput                    2 # the number ports of the register file
-specialized_unit_1         0,4,4,4,4,BRA # specialized unit config {<enabled>,<num_units>:<latency>:<initiation>,<ID_OC_SPEC>:<OC_EX_SPEC>,<NAME>}
-specialized_unit_2         0,4,4,4,4,BRA # specialized unit config {<enabled>,<num_units>:<latency>:<initiation>,<ID_OC_SPEC>:<OC_EX_SPEC>,<NAME>}
-specialized_unit_3         0,4,4,4,4,BRA # specialized unit config {<enabled>,<num_units>:<latency>:<initiation>,<ID_OC_SPEC>:<OC_EX_SPEC>,<NAME>}
-specialized_unit_4         0,4,4,4,4,BRA # specialized unit config {<enabled>,<num_units>:<latency>:<initiation>,<ID_OC_SPEC>:<OC_EX_SPEC>,<NAME>}
-specialized_unit_5         0,4,4,4,4,BRA # specialized unit config {<enabled>,<num_units>:<latency>:<initiation>,<ID_OC_SPEC>:<OC_EX_SPEC>,<NAME>}
-specialized_unit_6         0,4,4,4,4,BRA # specialized unit config {<enabled>,<num_units>:<latency>:<initiation>,<ID_OC_SPEC>:<OC_EX_SPEC>,<NAME>}
-specialized_unit_7         0,4,4,4,4,BRA # specialized unit config {<enabled>,<num_units>:<latency>:<initiation>,<ID_OC_SPEC>:<OC_EX_SPEC>,<NAME>}
-specialized_unit_8         0,4,4,4,4,BRA # specialized unit config {<enabled>,<num_units>:<latency>:<initiation>,<ID_OC_SPEC>:<OC_EX_SPEC>,<NAME>}
-gpgpu_perf_sim_memcpy                    1 # Fill the L2 cache on memcpy
-gpgpu_simple_dram_model                    0 # simple_dram_model with fixed latency and BW
-gpgpu_dram_scheduler                    1 # 0 = fifo, 1 = FR-FCFS (defaul)
-gpgpu_dram_partition_queues          64:64:64:64 # i2$:$2d:d2$:$2i
-l2_ideal                               0 # Use a ideal L2 cache that always hit
-gpgpu_cache:dl2     S:32:128:24,L:B:m:L:P,A:192:4,32:0,32 # unified banked L2 data cache config  {<nsets>:<bsize>:<assoc>,<rep>:<wr>:<alloc>:<wr_alloc>,<mshr>:<N>:<merge>,<mq>}
-gpgpu_cache:dl2_texture_only                    0 # L2 cache used for texture only
-gpgpu_n_mem                           32 # number of memory modules (e.g. memory controllers) in gpu
-gpgpu_n_sub_partition_per_mchannel                    2 # number of memory subpartition in each memory module
-gpgpu_n_mem_per_ctrlr                    1 # number of memory chips per memory controller
-gpgpu_memlatency_stat                   14 # track and display latency statistics 0x2 enables MC, 0x4 enables queue logs
-gpgpu_frfcfs_dram_sched_queue_size                   64 # 0 = unlimited (default); # entries per chip
-gpgpu_dram_return_queue_size                  192 # 0 = unlimited (default); # entries per chip
-gpgpu_dram_buswidth                   16 # default = 4 bytes (8 bytes per cycle at DDR)
-gpgpu_dram_burst_length                    2 # Burst length of each DRAM request (default = 4 data bus cycle)
-dram_data_command_freq_ratio                    2 # Frequency ratio between DRAM data bus and command bus (default = 2 times, i.e. DDR)
-gpgpu_dram_timing_opt nbk=16:CCD=1:RRD=3:RCD=12:RAS=28:RP=12:RC=40: CL=12:WL=2:CDLR=3:WR=10:nbkgrp=4:CCDL=2:RTPL=3 # DRAM timing parameters = {nbk:tCCD:tRRD:tRCD:tRAS:tRP:tRC:CL:WL:tCDLR:tWR:nbkgrp:tCCDL:tRTPL}
-gpgpu_l2_rop_latency                  160 # ROP queue latency (default 85)
-dram_latency                         200 # DRAM latency (default 30)
-dram_write_latency                   600 # DRAM write latency (default 100)
-dram_dual_bus_interface                    1 # dual_bus_interface (default = 0) 
-dram_bnk_indexing_policy                    0 # dram_bnk_indexing_policy (0 = normal indexing, 1 = Xoring with the higher bits) (Default = 0)
-dram_bnkgrp_indexing_policy                    1 # dram_bnkgrp_indexing_policy (0 = take higher bits, 1 = take lower bits) (Default = 0)
-dram_seperate_write_queue_enable                    0 # Seperate_Write_Queue_Enable
-dram_write_queue_size             32:28:16 # Write_Queue_Size
-dram_elimnate_rw_turnaround                    0 # elimnate_rw_turnaround i.e set tWTR and tRTW = 0
-icnt_flit_size                        40 # icnt_flit_size
-gpgpu_mem_addr_mapping dramid@8;00000000.00000000.00000000.00000000.0000RRRR.RRRRRRRR.RBBBCCCB.CCCSSSSS # mapping memory address to dram model {dramid@<start bit>;<memory address map>}
-gpgpu_mem_addr_test                    0 # run sweep test to check address mapping for aliased address
-gpgpu_mem_address_mask                    1 # 0 = old addressing mask, 1 = new addressing mask, 2 = new add. mask + flipped bank sel and chip sel bits
-gpgpu_memory_partition_indexing                    0 # 0 = no indexing, 1 = bitwise xoring, 2 = IPoly, 3 = custom indexing
-gpuwattch_xml_file         gpuwattch.xml # GPUWattch XML file
-power_simulation_enabled                    0 # Turn on power simulator (1=On, 0=Off)
-power_per_cycle_dump                    0 # Dump detailed power output each cycle
-power_trace_enabled                    0 # produce a file for the power trace (1=On, 0=Off)
-power_trace_zlevel                     6 # Compression level of the power trace output log (0=no comp, 9=highest)
-steady_power_levels_enabled                    0 # produce a file for the steady power levels (1=On, 0=Off)
-steady_state_definition                  8:4 # allowed deviation:number of samples
-gpgpu_max_cycle                        0 # terminates gpu simulation early (0 = no limit)
-gpgpu_max_insn                         0 # terminates gpu simulation early (0 = no limit)
-gpgpu_max_cta                          0 # terminates gpu simulation early (0 = no limit)
-gpgpu_max_completed_cta                    0 # terminates gpu simulation early (0 = no limit)
-gpgpu_runtime_stat                   500 # display runtime statistics such as dram utilization {<freq>:<flag>}
-liveness_message_freq                    1 # Minimum number of seconds between simulation liveness messages (0 = always print)
-gpgpu_compute_capability_major                    7 # Major compute capability version number
-gpgpu_compute_capability_minor                    0 # Minor compute capability version number
-gpgpu_flush_l1_cache                    1 # Flush L1 cache at the end of each kernel call
-gpgpu_flush_l2_cache                    0 # Flush L2 cache at the end of each kernel call
-gpgpu_deadlock_detect                    1 # Stop the simulation at deadlock (1=on (default), 0=off)
-gpgpu_ptx_instruction_classification                    0 # if enabled will classify ptx instruction types per kernel (Max 255 kernels now)
-gpgpu_ptx_sim_mode                     0 # Select between Performance (default) or Functional simulation (1)
-gpgpu_clock_domains 1132.0:1132.0:1132.0:850.0 # Clock Domain Frequencies in MhZ {<Core Clock>:<ICNT Clock>:<L2 Clock>:<DRAM Clock>}
-gpgpu_max_concurrent_kernel                    8 # maximum kernels that can run concurrently on GPU
-gpgpu_cflog_interval                    0 # Interval between each snapshot in control flow logger
-visualizer_enabled               3acf4816f28a61137a29f806736c3982  /home/pli11/Videos/parboil_benchmark/parboil/benchmarks/sad/build/nvm_default/sad
Extracting PTX file and ptxas options    1: sad.1.sm_70.ptx -arch=sm_70
Extracting PTX file and ptxas options    2: sad.2.sm_70.ptx -arch=sm_70
Extracting PTX file and ptxas options    3: sad.3.sm_70.ptx -arch=sm_70
      0 # Turn on visualizer output (1=On, 0=Off)
-visualizer_outputfile                 NULL # Specifies the output log file for visualizer
-visualizer_zlevel                      6 # Compression level of the visualizer output log (0=no comp, 9=highest)
-gpgpu_stack_size_limit                 1024 # GPU thread stack size
-gpgpu_heap_size_limit              8388608 # GPU malloc heap size 
-gpgpu_runtime_sync_depth_limit                    2 # GPU device runtime synchronize depth
-gpgpu_runtime_pending_launch_count_limit                 2048 # GPU device runtime pending launch count
-trace_enabled                          0 # Turn on traces
-trace_components                    none # comma seperated list of traces to enable. Complete list found in trace_streams.tup. Default none
-trace_sampling_core                    0 # The core which is printed using CORE_DPRINTF. Default 0
-trace_sampling_memory_partition                   -1 # The memory partition which is printed using MEMPART_DPRINTF. Default -1 (i.e. all)
-enable_ptx_file_line_stats                    1 # Turn on PTX source line statistic profiling. (1 = On)
-ptx_line_stats_filename gpgpu_inst_stats.txt # Output file for PTX source line statistics.
-gpgpu_kernel_launch_latency                 5000 # Kernel launch latency in cycles. Default: 0
-gpgpu_cdp_enabled                      0 # Turn on CDP
-gpgpu_TB_launch_latency                    0 # thread block launch latency in cycles. Default: 0
DRAM Timing Options:
nbk                                    16 # number of banks
CCD                                     1 # column to column delay
RRD                                     3 # minimal delay between activation of rows in different banks
RCD                                    12 # row to column delay
RAS                                    28 # time needed to activate row
RP                                     12 # time needed to precharge (deactivate) row
RC                                     40 # row cycle time
CDLR                                    3 # switching from write to read (changes tWTR)
WR                                     10 # last data-in to row precharge
CL                                     12 # CAS latency
WL                                      2 # Write latency
nbkgrp                                  4 # number of bank groups
CCDL                                    2 # column to column delay between accesses to different bank groups
RTPL                                    3 # read to precharge delay between accesses to different bank groups
Total number of memory sub partition = 64
addr_dec_mask[CHIP]  = 0000000000001f00 	high:13 low:8
addr_dec_mask[BK]    = 00000000000e2000 	high:20 low:13
addr_dec_mask[ROW]   = 00000001fff00000 	high:33 low:20
addr_dec_mask[COL]   = 000000000001c0ff 	high:17 low:0
addr_dec_mask[BURST] = 000000000000001f 	high:5 low:0
sub_partition_id_mask = 0000000000002000
GPGPU-Sim uArch: clock freqs: 1132000000.000000:1132000000.000000:1132000000.000000:850000000.000000
GPGPU-Sim uArch: clock periods: 0.00000000088339222615:0.00000000088339222615:0.00000000088339222615:0.00000000117647058824
*** Initializing Memory Statistics ***
GPGPU-Sim uArch: performance model initialization complete.
self exe links to: /home/pli11/Videos/parboil_benchmark/parboil/benchmarks/sad/build/nvm_default/sad
self exe links to: /home/pli11/Videos/parboil_benchmark/parboil/benchmarks/sad/build/nvm_default/sad
10.1
GPGPU-Sim PTX: __cudaRegisterFatBinary, fat_cubin_handle = 1, filename=default
self exe links to: /home/pli11/Videos/parboil_benchmark/parboil/benchmarks/sad/build/nvm_default/sad
Running md5sum using "md5sum /home/pli11/Videos/parboil_benchmark/parboil/benchmarks/sad/build/nvm_default/sad "
self exe links to: /home/pli11/Videos/parboil_benchmark/parboil/benchmarks/sad/build/nvm_default/sad
Extracting specific PTX file named sad.1.sm_70.ptx 
Extracting specific PTX file named sad.2.sm_70.ptx 
Extracting specific PTX file named sad.3.sm_70.ptx 
GPGPU-Sim PTX: __cudaRegisterFunction _Z16mb_sad_calc_nvmdPtS_ii : hostFun 0x0x403136, fat_cubin_handle = 1
GPGPU-Sim PTX: Parsing sad.1.sm_70.ptx
GPGPU-Sim PTX: allocating global region for "ref" from 0x100 to 0x104 (global memory space)
GPGPU-Sim PTX: allocating global region for "NVM_log" from 0x180 to 0x2000180 (global memory space)
GPGPU-Sim PTX: allocating global region for "NVM_flag" from 0x2000180 to 0x2400180 (global memory space)
GPGPU-Sim PTX: instruction assembly for function '_Z16mb_sad_calc_nvmoPtS_ii'...   done.
GPGPU-Sim PTX: instruction assembly for function '_Z16mb_sad_calc_nvmuPtS_ii'...   done.
GPGPU-Sim PTX: instruction assembly for function '_Z16mb_sad_calc_nvmqPtS_ii'...   done.
GPGPU-Sim PTX: instruction assembly for function '_Z16mb_sad_calc_nvmwPtS_ii'...   done.
GPGPU-Sim PTX: instruction assembly for function '_Z16mb_sad_calc_nvm1PtS_ii'...   done.
GPGPU-Sim PTX: instruction assembly for function '_Z16mb_sad_calc_nvm2PtS_ii'...   done.
GPGPU-Sim PTX: instruction assembly for function '_Z16mb_sad_calc_nvmjPtS_ii'...   done.
GPGPU-Sim PTX: instruction assembly for function '_Z16mb_sad_calc_nvmlPtS_ii'...   done.
GPGPU-Sim PTX: instruction assembly for function '_Z16mb_sad_calc_nvmgPtS_ii'...   done.
GPGPU-Sim PTX: instruction assembly for function '_Z16mb_sad_calc_nvm3PtS_ii'...   done.
GPGPU-Sim PTX: instruction assembly for function '_Z16mb_sad_calc_nvm4PtS_ii'...   done.
GPGPU-Sim PTX: instruction assembly for function '_Z16mb_sad_calc_nvmiPtS_ii'...   done.
GPGPU-Sim PTX: instruction assembly for function '_Z16mb_sad_calc_nvm6PtS_ii'...   done.
GPGPU-Sim PTX: instruction assembly for function '_Z16mb_sad_calc_nvm5PtS_ii'...   done.
GPGPU-Sim PTX: instruction assembly for function '_Z11mb_sad_calcPtS_ii'...   done.
GPGPU-Sim PTX: instruction assembly for function '_Z16mb_sad_calc_nvmbPtS_ii'...   done.
GPGPU-Sim PTX: instruction assembly for function '_Z16mb_sad_calc_nvmdPtS_ii'...   done.
GPGPU-Sim PTX: finished parsing EMBEDDED .ptx file sad.1.sm_70.ptx
GPGPU-Sim PTX: Parsing sad.2.sm_70.ptx
GPGPU-Sim PTX: instruction assembly for function '_Z17larger_sad_calc_8Ptii'...   done.
GPGPU-Sim PTX: instruction assembly for function '_Z22larger_sad_calc_8_nvmoPtii'...   done.
GPGPU-Sim PTX: instruction assembly for function '_Z22larger_sad_calc_8_nvmuPtii'...   done.
GPGPU-Sim PTX: instruction assembly for function '_Z22larger_sad_calc_8_nvmbPtii'...   done.
GPGPU-Sim PTX: instruction assembly for function '_Z18larger_sad_calc_16Ptii'...   done.
GPGPU-Sim PTX: finished parsing EMBEDDED .ptx file sad.2.sm_70.ptx
GPGPU-Sim PTX: Parsing sad.3.sm_70.ptx
GPGPU-Sim PTX: instruction assembly for function '_Z11kernel_l2wbv'...   done.
GPGPU-Sim PTX: instruction assembly for function '_Z15kernel_l2wb_pctv'...   done.
GPGPU-Sim PTX: finished parsing EMBEDDED .ptx file sad.3.sm_70.ptx
GPGPU-Sim PTX: loading globals with explicit initializers... 
GPGPU-Sim PTX: finished loading globals (0 bytes total).
GPGPU-Sim PTX: loading constants with explicit initializers...  done.
GPGPU-Sim PTX: Loading PTXInfo from sad.1.sm_70.ptx
GPGPU-Sim PTX: Kernel '_Z16mb_sad_calc_nvmdPtS_ii' : regs=48, lmem=0, smem=0, cmem=380
GPGPU-Sim PTX: Kernel '_Z16mb_sad_calc_nvmbPtS_ii' : regs=48, lmem=0, smem=0, cmem=380
GPGPU-Sim PTX: Kernel '_Z11mb_sad_calcPtS_ii' : regs=48, lmem=0, smem=0, cmem=380
GPGPU-Sim PTX: Kernel '_Z16mb_sad_calc_nvm5PtS_ii' : regs=64, lmem=0, smem=0, cmem=380
GPGPU-Sim PTX: Kernel '_Z16mb_sad_calc_nvm6PtS_ii' : regs=64, lmem=0, smem=0, cmem=380
GPGPU-Sim PTX: Kernel '_Z16mb_sad_calc_nvmiPtS_ii' : regs=56, lmem=0, smem=0, cmem=380
GPGPU-Sim PTX: Kernel '_Z16mb_sad_calc_nvm4PtS_ii' : regs=56, lmem=0, smem=0, cmem=380
GPGPU-Sim PTX: Kernel '_Z16mb_sad_calc_nvm3PtS_ii' : regs=56, lmem=0, smem=0, cmem=380
GPGPU-Sim PTX: Kernel '_Z16mb_sad_calc_nvmgPtS_ii' : regs=56, lmem=0, smem=0, cmem=380
GPGPU-Sim PTX: Kernel '_Z16mb_sad_calc_nvmlPtS_ii' : regs=48, lmem=0, smem=0, cmem=380
GPGPU-Sim PTX: Kernel '_Z16mb_sad_calc_nvmjPtS_ii' : regs=48, lmem=0, smem=0, cmem=380
GPGPU-Sim PTX: Kernel '_Z16mb_sad_calc_nvm2PtS_ii' : regs=48, lmem=0, smem=0, cmem=380
GPGPU-Sim PTX: Kernel '_Z16mb_sad_calc_nvm1PtS_ii' : regs=48, lmem=0, smem=0, cmem=380
GPGPU-Sim PTX: Kernel '_Z16mb_sad_calc_nvmwPtS_ii' : regs=56, lmem=0, smem=0, cmem=380
GPGPU-Sim PTX: Kernel '_Z16mb_sad_calc_nvmqPtS_ii' : regs=56, lmem=0, smem=0, cmem=380
GPGPU-Sim PTX: Kernel '_Z16mb_sad_calc_nvmuPtS_ii' : regs=56, lmem=0, smem=0, cmem=380
GPGPU-Sim PTX: Kernel '_Z16mb_sad_calc_nvmoPtS_ii' : regs=56, lmem=0, smem=0, cmem=380
GPGPU-Sim PTX: Loading PTXInfo from sad.2.sm_70.ptx
GPGPU-Sim PTX: Kernel '_Z18larger_sad_calc_16Ptii' : regs=32, lmem=0, smem=0, cmem=368
GPGPU-Sim PTX: Kernel '_Z22larger_sad_calc_8_nvmbPtii' : regs=32, lmem=0, smem=0, cmem=368
GPGPU-Sim PTX: Kernel '_Z22larger_sad_calc_8_nvmuPtii' : regs=32, lmem=0, smem=0, cmem=368
GPGPU-Sim PTX: Kernel '_Z22larger_sad_calc_8_nvmoPtii' : regs=32, lmem=0, smem=0, cmem=368
GPGPU-Sim PTX: Kernel '_Z17larger_sad_calc_8Ptii' : regs=32, lmem=0, smem=0, cmem=368
GPGPU-Sim PTX: Loading PTXInfo from sad.3.sm_70.ptx
GPGPU-Sim PTX: Kernel '_Z15kernel_l2wb_pctv' : regs=8, lmem=0, smem=0, cmem=352
GPGPU-Sim PTX: Kernel '_Z11kernel_l2wbv' : regs=8, lmem=0, smem=0, cmem=352
GPGPU-Sim PTX: __cudaRegisterFunction _Z16mb_sad_calc_nvmbPtS_ii : hostFun 0x0x402fc3, fat_cubin_handle = 1
GPGPU-Sim PTX: __cudaRegisterFunction _Z11mb_sad_calcPtS_ii : hostFun 0x0x402e50, fat_cubin_handle = 1
GPGPU-Sim PTX: __cudaRegisterFunction _Z16mb_sad_calc_nvm5PtS_ii : hostFun 0x0x402cdd, fat_cubin_handle = 1
GPGPU-Sim PTX: __cudaRegisterFunction _Z16mb_sad_calc_nvm6PtS_ii : hostFun 0x0x402b6a, fat_cubin_handle = 1
GPGPU-Sim PTX: __cudaRegisterFunction _Z16mb_sad_calc_nvmiPtS_ii : hostFun 0x0x4029f7, fat_cubin_handle = 1
GPGPU-Sim PTX: __cudaRegisterFunction _Z16mb_sad_calc_nvm4PtS_ii : hostFun 0x0x402884, fat_cubin_handle = 1
GPGPU-Sim PTX: __cudaRegisterFunction _Z16mb_sad_calc_nvm3PtS_ii : hostFun 0x0x402711, fat_cubin_handle = 1
GPGPU-Sim PTX: __cudaRegisterFunction _Z16mb_sad_calc_nvmgPtS_ii : hostFun 0x0x40259e, fat_cubin_handle = 1
GPGPU-Sim PTX: __cudaRegisterFunction _Z16mb_sad_calc_nvmlPtS_ii : hostFun 0x0x40242b, fat_cubin_handle = 1
GPGPU-Sim PTX: __cudaRegisterFunction _Z16mb_sad_calc_nvmjPtS_ii : hostFun 0x0x4022b8, fat_cubin_handle = 1
GPGPU-Sim PTX: __cudaRegisterFunction _Z16mb_sad_calc_nvm2PtS_ii : hostFun 0x0x402145, fat_cubin_handle = 1
GPGPU-Sim PTX: __cudaRegisterFunction _Z16mb_sad_calc_nvm1PtS_ii : hostFun 0x0x401fd2, fat_cubin_handle = 1
GPGPU-Sim PTX: __cudaRegisterFunction _Z16mb_sad_calc_nvmwPtS_ii : hostFun 0x0x401e5f, fat_cubin_handle = 1
GPGPU-Sim PTX: __cudaRegisterFunction _Z16mb_sad_calc_nvmqPtS_ii : hostFun 0x0x401cec, fat_cubin_handle = 1
GPGPU-Sim PTX: __cudaRegisterFunction _Z16mb_sad_calc_nvmuPtS_ii : hostFun 0x0x401b79, fat_cubin_handle = 1
GPGPU-Sim PTX: __cudaRegisterFunction _Z16mb_sad_calc_nvmoPtS_ii : hostFun 0x0x401a06, fat_cubin_handle = 1
GPGPU-Sim PTX: in __cudaRegisterTexture:
GPGPU-Sim PTX:   int dim = 2
GPGPU-Sim PTX:   int norm = 0
GPGPU-Sim PTX:   int ext = 0
GPGPU-Sim PTX:   Execution warning: Not finished implementing "void __cudaRegisterTextureInternal(void**, const textureReference*, const void**, const char*, int, int, int, gpgpu_context*)"
GPGPU-Sim PTX: __cudaRegisterVar: hostVar = 0x6132a0; deviceAddress = NVM_log; deviceName = NVM_log
GPGPU-Sim PTX: __cudaRegisterVar: Registering const memory space of 33554432 bytes
GPGPU-Sim PTX registering global NVM_log hostVar to name mapping
GPGPU-Sim PTX: __cudaRegisterVar: hostVar = 0x26132a0; deviceAddress = NVM_flag; deviceName = NVM_flag
GPGPU-Sim PTX: __cudaRegisterVar: Registering const memory space of 4194304 bytes
GPGPU-Sim PTX registering global NVM_flag hostVar to name mapping
self exe links to: /home/pli11/Videos/parboil_benchmark/parboil/benchmarks/sad/build/nvm_default/sad
self exe links to: /home/pli11/Videos/parboil_benchmark/parboil/benchmarks/sad/build/nvm_default/sad
10.1
GPGPU-Sim PTX: __cudaRegisterFatBinary, fat_cubin_handle = 2, filename=default
GPGPU-Sim PTX: __cudaRegisterFunction _Z18larger_sad_calc_16Ptii : hostFun 0x0x403ff1, fat_cubin_handle = 2
GPGPU-Sim PTX: __cudaRegisterFunction _Z22larger_sad_calc_8_nvmbPtii : hostFun 0x0x403e9a, fat_cubin_handle = 2
GPGPU-Sim PTX: __cudaRegisterFunction _Z22larger_sad_calc_8_nvmuPtii : hostFun 0x0x403d43, fat_cubin_handle = 2
GPGPU-Sim PTX: __cudaRegisterFunction _Z22larger_sad_calc_8_nvmoPtii : hostFun 0x0x403bec, fat_cubin_handle = 2
GPGPU-Sim PTX: __cudaRegisterFunction _Z17larger_sad_calc_8Ptii : hostFun 0x0x403a95, fat_cubin_handle = 2
self exe links to: /home/pli11/Videos/parboil_benchmark/parboil/benchmarks/sad/build/nvm_default/sad
self exe links to: /home/pli11/Videos/parboil_benchmark/parboil/benchmarks/sad/build/nvm_default/sad
10.1
GPGPU-Sim PTX: __cudaRegisterFatBinary, fat_cubin_handle = 3, filename=default
GPGPU-Sim PTX: __cudaRegisterFunction _Z15kernel_l2wb_pctv : hostFun 0x0x40676c, fat_cubin_handle = 3
GPGPU-Sim PTX: __cudaRegisterFunction _Z11kernel_l2wbv : hostFun 0x0x406672, fat_cubin_handle = 3
GPGPU-Sim PTX: cudaMallocArray: devPtr32 = -1073691136
GPGPU-Sim PTX: in cudaBindTextureToArray: 0x613220 0x10ffa5c0
GPGPU-Sim PTX:   devPtr32 = c000c600
GPGPU-Sim PTX:   Name corresponding to textureReference: ref
GPGPU-Sim PTX:   Texture Normalized? = 0
GPGPU-Sim PTX:   texel size = 2
GPGPU-Sim PTX:   texture cache linesize = 128
GPGPU-Sim PTX:   Tx = 16; Ty = 4, Tx_numbits = 4, Ty_numbits = 2
GPGPU-Sim PTX:   Texel size = 2 bytes; texel_size_numbits = 1
GPGPU-Sim PTX:   Binding texture to array starting at devPtr32 = 0xc000c600
GPGPU-Sim PTX:   Texel size = 2 bytes
event update
width * height = 99
GPGPU-Sim: synchronize waiting for inactive GPU simulation
GPGPU-Sim API: Stream Manager State
GPGPU-Sim: detected inactive GPU simulation thread
GPGPU-Sim PTX: Setting up arguments for 8 bytes starting at 0x7ffd45d1bfd8..
GPGPU-Sim PTX: Setting up arguments for 8 bytes starting at 0x7ffd45d1bfd0..
GPGPU-Sim PTX: Setting up arguments for 4 bytes starting at 0x7ffd45d1bfcc..
GPGPU-Sim PTX: Setting up arguments for 4 bytes starting at 0x7ffd45d1bfc8..

GPGPU-Sim PTX: cudaLaunch for 0x0x401a06 (mode=performance simulation) on stream 0
GPGPU-Sim PTX: finding reconvergence points for '_Z16mb_sad_calc_nvmoPtS_ii'...
GPGPU-Sim PTX: Finding dominators for '_Z16mb_sad_calc_nvmoPtS_ii'...
GPGPU-Sim PTX: Finding immediate dominators for '_Z16mb_sad_calc_nvmoPtS_ii'...
GPGPU-Sim PTX: Finding postdominators for '_Z16mb_sad_calc_nvmoPtS_ii'...
GPGPU-Sim PTX: Finding immediate postdominators for '_Z16mb_sad_calc_nvmoPtS_ii'...
GPGPU-Sim PTX: pre-decoding instructions for '_Z16mb_sad_calc_nvmoPtS_ii'...
GPGPU-Sim PTX: reconvergence points for _Z16mb_sad_calc_nvmoPtS_ii...
GPGPU-Sim PTX:  1 (potential) branch divergence @  PC=0x080 (sad.1.sm_70.ptx:48) @%p3 bra BB0_4;
GPGPU-Sim PTX:    immediate post dominator      @  PC=0x5e0 (sad.1.sm_70.ptx:230) ret;
GPGPU-Sim PTX:  2 (potential) branch divergence @  PC=0x0c0 (sad.1.sm_70.ptx:57) @%p4 bra BB0_4;
GPGPU-Sim PTX:    immediate post dominator      @  PC=0x5e0 (sad.1.sm_70.ptx:230) ret;
GPGPU-Sim PTX:  3 (potential) branch divergence @  PC=0x5d8 (sad.1.sm_70.ptx:227) @%p5 bra BB0_3;
GPGPU-Sim PTX:    immediate post dominator      @  PC=0x5e0 (sad.1.sm_70.ptx:230) ret;
GPGPU-Sim PTX: ... end of reconvergence points for _Z16mb_sad_calc_nvmoPtS_ii
GPGPU-Sim PTX: ... done pre-decoding instructions for '_Z16mb_sad_calc_nvmoPtS_ii'.
GPGPU-Sim PTX: pushing kernel '_Z16mb_sad_calc_nvmoPtS_ii' to stream 0, gridDim= (44,36,1) blockDim = (61,1,1) 
GPGPU-Sim uArch: Shader 0 bind to kernel 1 '_Z16mb_sad_calc_nvmoPtS_ii'
GPGPU-Sim uArch: CTA/core = 18, limited by: regs
GPGPU-Sim: Reconfigure L1 cache to 128KB
GPGPU-Sim uArch: Shader 1 bind to kernel 1 '_Z16mb_sad_calc_nvmoPtS_ii'
GPGPU-Sim uArch: Shader 2 bind to kernel 1 '_Z16mb_sad_calc_nvmoPtS_ii'
GPGPU-Sim uArch: Shader 3 bind to kernel 1 '_Z16mb_sad_calc_nvmoPtS_ii'
GPGPU-Sim uArch: Shader 4 bind to kernel 1 '_Z16mb_sad_calc_nvmoPtS_ii'
GPGPU-Sim uArch: Shader 5 bind to kernel 1 '_Z16mb_sad_calc_nvmoPtS_ii'
GPGPU-Sim uArch: Shader 6 bind to kernel 1 '_Z16mb_sad_calc_nvmoPtS_ii'
GPGPU-Sim uArch: Shader 7 bind to kernel 1 '_Z16mb_sad_calc_nvmoPtS_ii'
GPGPU-Sim uArch: Shader 8 bind to kernel 1 '_Z16mb_sad_calc_nvmoPtS_ii'
GPGPU-Sim uArch: Shader 9 bind to kernel 1 '_Z16mb_sad_calc_nvmoPtS_ii'
GPGPU-Sim uArch: Shader 10 bind to kernel 1 '_Z16mb_sad_calc_nvmoPtS_ii'
GPGPU-Sim uArch: Shader 11 bind to kernel 1 '_Z16mb_sad_calc_nvmoPtS_ii'
GPGPU-Sim uArch: Shader 12 bind to kernel 1 '_Z16mb_sad_calc_nvmoPtS_ii'
GPGPU-Sim uArch: Shader 13 bind to kernel 1 '_Z16mb_sad_calc_nvmoPtS_ii'
GPGPU-Sim uArch: Shader 14 bind to kernel 1 '_Z16mb_sad_calc_nvmoPtS_ii'
GPGPU-Sim uArch: Shader 15 bind to kernel 1 '_Z16mb_sad_calc_nvmoPtS_ii'
GPGPU-Sim uArch: Shader 16 bind to kernel 1 '_Z16mb_sad_calc_nvmoPtS_ii'
GPGPU-Sim uArch: Shader 17 bind to kernel 1 '_Z16mb_sad_calc_nvmoPtS_ii'
GPGPU-Sim uArch: Shader 18 bind to kernel 1 '_Z16mb_sad_calc_nvmoPtS_ii'
GPGPU-Sim uArch: Shader 19 bind to kernel 1 '_Z16mb_sad_calc_nvmoPtS_ii'
GPGPU-Sim uArch: Shader 20 bind to kernel 1 '_Z16mb_sad_calc_nvmoPtS_ii'
GPGPU-Sim uArch: Shader 21 bind to kernel 1 '_Z16mb_sad_calc_nvmoPtS_ii'
GPGPU-Sim uArch: Shader 22 bind to kernel 1 '_Z16mb_sad_calc_nvmoPtS_ii'
GPGPU-Sim uArch: Shader 23 bind to kernel 1 '_Z16mb_sad_calc_nvmoPtS_ii'
GPGPU-Sim uArch: Shader 24 bind to kernel 1 '_Z16mb_sad_calc_nvmoPtS_ii'
GPGPU-Sim uArch: Shader 25 bind to kernel 1 '_Z16mb_sad_calc_nvmoPtS_ii'
GPGPU-Sim uArch: Shader 26 bind to kernel 1 '_Z16mb_sad_calc_nvmoPtS_ii'
GPGPU-Sim uArch: Shader 27 bind to kernel 1 '_Z16mb_sad_calc_nvmoPtS_ii'
GPGPU-Sim uArch: Shader 28 bind to kernel 1 '_Z16mb_sad_calc_nvmoPtS_ii'
GPGPU-Sim uArch: Shader 29 bind to kernel 1 '_Z16mb_sad_calc_nvmoPtS_ii'
GPGPU-Sim uArch: Shader 30 bind to kernel 1 '_Z16mb_sad_calc_nvmoPtS_ii'
GPGPU-Sim uArch: Shader 31 bind to kernel 1 '_Z16mb_sad_calc_nvmoPtS_ii'
GPGPU-Sim uArch: Shader 32 bind to kernel 1 '_Z16mb_sad_calc_nvmoPtS_ii'
GPGPU-Sim uArch: Shader 33 bind to kernel 1 '_Z16mb_sad_calc_nvmoPtS_ii'
GPGPU-Sim uArch: Shader 34 bind to kernel 1 '_Z16mb_sad_calc_nvmoPtS_ii'
GPGPU-Sim uArch: Shader 35 bind to kernel 1 '_Z16mb_sad_calc_nvmoPtS_ii'
GPGPU-Sim uArch: Shader 36 bind to kernel 1 '_Z16mb_sad_calc_nvmoPtS_ii'
GPGPU-Sim uArch: Shader 37 bind to kernel 1 '_Z16mb_sad_calc_nvmoPtS_ii'
GPGPU-Sim uArch: Shader 38 bind to kernel 1 '_Z16mb_sad_calc_nvmoPtS_ii'
GPGPU-Sim uArch: Shader 39 bind to kernel 1 '_Z16mb_sad_calc_nvmoPtS_ii'
GPGPU-Sim uArch: Shader 40 bind to kernel 1 '_Z16mb_sad_calc_nvmoPtS_ii'
GPGPU-Sim uArch: Shader 41 bind to kernel 1 '_Z16mb_sad_calc_nvmoPtS_ii'
GPGPU-Sim uArch: Shader 42 bind to kernel 1 '_Z16mb_sad_calc_nvmoPtS_ii'
GPGPU-Sim uArch: Shader 43 bind to kernel 1 '_Z16mb_sad_calc_nvmoPtS_ii'
GPGPU-Sim uArch: Shader 44 bind to kernel 1 '_Z16mb_sad_calc_nvmoPtS_ii'
GPGPU-Sim uArch: Shader 45 bind to kernel 1 '_Z16mb_sad_calc_nvmoPtS_ii'
GPGPU-Sim uArch: Shader 46 bind to kernel 1 '_Z16mb_sad_calc_nvmoPtS_ii'
GPGPU-Sim uArch: Shader 47 bind to kernel 1 '_Z16mb_sad_calc_nvmoPtS_ii'
GPGPU-Sim uArch: Shader 48 bind to kernel 1 '_Z16mb_sad_calc_nvmoPtS_ii'
GPGPU-Sim uArch: Shader 49 bind to kernel 1 '_Z16mb_sad_calc_nvmoPtS_ii'
GPGPU-Sim uArch: Shader 50 bind to kernel 1 '_Z16mb_sad_calc_nvmoPtS_ii'
GPGPU-Sim uArch: Shader 51 bind to kernel 1 '_Z16mb_sad_calc_nvmoPtS_ii'
GPGPU-Sim uArch: Shader 52 bind to kernel 1 '_Z16mb_sad_calc_nvmoPtS_ii'
GPGPU-Sim uArch: Shader 53 bind to kernel 1 '_Z16mb_sad_calc_nvmoPtS_ii'
GPGPU-Sim uArch: Shader 54 bind to kernel 1 '_Z16mb_sad_calc_nvmoPtS_ii'
GPGPU-Sim uArch: Shader 55 bind to kernel 1 '_Z16mb_sad_calc_nvmoPtS_ii'
GPGPU-Sim uArch: Shader 56 bind to kernel 1 '_Z16mb_sad_calc_nvmoPtS_ii'
GPGPU-Sim uArch: Shader 57 bind to kernel 1 '_Z16mb_sad_calc_nvmoPtS_ii'
GPGPU-Sim uArch: Shader 58 bind to kernel 1 '_Z16mb_sad_calc_nvmoPtS_ii'
GPGPU-Sim uArch: Shader 59 bind to kernel 1 '_Z16mb_sad_calc_nvmoPtS_ii'
GPGPU-Sim uArch: Shader 60 bind to kernel 1 '_Z16mb_sad_calc_nvmoPtS_ii'
GPGPU-Sim uArch: Shader 61 bind to kernel 1 '_Z16mb_sad_calc_nvmoPtS_ii'
GPGPU-Sim uArch: Shader 62 bind to kernel 1 '_Z16mb_sad_calc_nvmoPtS_ii'
GPGPU-Sim uArch: Shader 63 bind to kernel 1 '_Z16mb_sad_calc_nvmoPtS_ii'
GPGPU-Sim uArch: Shader 64 bind to kernel 1 '_Z16mb_sad_calc_nvmoPtS_ii'
GPGPU-Sim uArch: Shader 65 bind to kernel 1 '_Z16mb_sad_calc_nvmoPtS_ii'
GPGPU-Sim uArch: Shader 66 bind to kernel 1 '_Z16mb_sad_calc_nvmoPtS_ii'
GPGPU-Sim uArch: Shader 67 bind to kernel 1 '_Z16mb_sad_calc_nvmoPtS_ii'
GPGPU-Sim uArch: Shader 68 bind to kernel 1 '_Z16mb_sad_calc_nvmoPtS_ii'
GPGPU-Sim uArch: Shader 69 bind to kernel 1 '_Z16mb_sad_calc_nvmoPtS_ii'
GPGPU-Sim uArch: Shader 70 bind to kernel 1 '_Z16mb_sad_calc_nvmoPtS_ii'
GPGPU-Sim uArch: Shader 71 bind to kernel 1 '_Z16mb_sad_calc_nvmoPtS_ii'
GPGPU-Sim uArch: Shader 72 bind to kernel 1 '_Z16mb_sad_calc_nvmoPtS_ii'
GPGPU-Sim uArch: Shader 73 bind to kernel 1 '_Z16mb_sad_calc_nvmoPtS_ii'
GPGPU-Sim uArch: Shader 74 bind to kernel 1 '_Z16mb_sad_calc_nvmoPtS_ii'
GPGPU-Sim uArch: Shader 75 bind to kernel 1 '_Z16mb_sad_calc_nvmoPtS_ii'
GPGPU-Sim uArch: Shader 76 bind to kernel 1 '_Z16mb_sad_calc_nvmoPtS_ii'
GPGPU-Sim uArch: Shader 77 bind to kernel 1 '_Z16mb_sad_calc_nvmoPtS_ii'
GPGPU-Sim uArch: Shader 78 bind to kernel 1 '_Z16mb_sad_calc_nvmoPtS_ii'
GPGPU-Sim uArch: Shader 79 bind to kernel 1 '_Z16mb_sad_calc_nvmoPtS_ii'
Destroy streams for kernel 1: size 0
kernel_name = _Z16mb_sad_calc_nvmoPtS_ii 
kernel_launch_uid = 1 
gpu_sim_cycle = 209977
gpu_sim_insn = 239427936
gpu_ipc =    1140.2579
gpu_tot_sim_cycle = 209977
gpu_tot_sim_insn = 239427936
gpu_tot_ipc =    1140.2579
gpu_tot_issued_cta = 1584
gpu_occupancy = 46.3442% 
gpu_tot_occupancy = 46.3442% 
max_total_param_size = 0
gpu_stall_dramfull = 854280
gpu_stall_icnt2sh    = 903
partiton_level_parallism =      18.0510
partiton_level_parallism_total  =      18.0510
partiton_level_parallism_util =      19.3557
partiton_level_parallism_util_total  =      19.3557
L2_BW  =     661.8222 GB/Sec
L2_BW_total  =     661.8222 GB/Sec
gpu_total_sim_rate=135041
############## bottleneck_stats #############
cycles: core 209977, icnt 209977, l2 209977, dram 157668
gpu_ipc	1140.258
gpu_tot_issued_cta = 1584, average cycles = 133
n_dram_writes	 0, n_dram_reads	 0
n_GLOBAL_ACC_R	 0 
n_LOCAL_ACC_R	 0 
n_CONST_ACC_R	 0 
n_TEXTURE_ACC_R	 0 
n_GLOBAL_ACC_W	 0 
n_LOCAL_ACC_W	 0 
n_L1_WRBK_ACC	 0 
n_L2_WRBK_ACC	 1711815 
n_L1_WR_ALLOC_R	 0 
n_L2_WR_ALLOC_R	 0 

n_sm	 80, n_schedulers	 4
scheduler util	0.118	80
L1D data util	0.508	80	0.589	35
L1D tag util	0.157	80	0.182	35
L2 data util	0.659	64	0.662	58
L2 tag util	0.285	64	0.288	0
n_l2_access	 3836336
icnt s2m util	0.000	0	0.000	0	flits per packet: -nan
icnt m2s util	0.000	0	0.000	0	flits per packet: -nan
sum=0
n_mem	 32
dram util	0.766	32	0.768	3

latency_l1_hit:	6774220, num_l1_reqs:	338711
L1 hit latency:	20
latency_l2_hit:	573867304, num_l2_reqs:	2003326
L2 hit latency:	286
latency_dram:	761351504, num_dram_reqs:	1833010
DRAM latency:	415

n_reg	65536, n_smem	98304, n_thread	2048, n_tb	32
reg file	0.984
smem size	0.000
thread slot	0.562
TB slot    	0.562
L1I tag util	0.239	80	0.278	35

n_mem_pipe	1, n_sp_pipe	4, n_sfu_pipe	4
mem pipe util	0.120	80	0.139	35
sp pipe util	0.000	0	0.000	35
sfu pipe util	0.000	0	0.000	35
ldst mem cycle	0.103	80	0.119	35

smem port	0.000	0

n_reg_bank	16
reg port	0.192	16	0.234	1
L1D tag util	0.157	80	0.182	35
L1D fill util	0.019	80	0.022	67
n_l1d_mshr	4096
L1D mshr util	0.001	80
n_l1d_missq	16
L1D missq util	0.009	80
L1D hit rate	0.128
L1D miss rate	0.869
L1D rsfail rate	0.003
L2 tag util	0.285	64	0.288	0
L2 fill util	0.000	0	0.000	0
n_l2_mshr	192
n_l2_missq	32
L2 mshr util	0.000	0	0.000	0
L2 missq util	0.004	64	0.004	35
L2 hit rate	0.522
L2 miss rate	0.478
L2 rsfail rate	0.000

dram activity	0.811	32	0.814	24

load trans eff	0.062
load trans sz	32.000
load_useful_bytes 1824768, load_transaction_bytes 29196288, icnt_m2s_bytes 0
n_gmem_load_insns 912384, n_gmem_load_accesses 912384
n_smem_access_insn 0, n_smem_accesses 0

tmp_counter/12	0.427

run 0.023, fetch 0.000, sync 0.084, control 0.000, data 0.889, struct 0.003
############ end_bottleneck_stats #############

========= Core cache stats =========
L1I_cache:
	L1I_total_cache_accesses = 0
	L1I_total_cache_misses = 0
	L1I_total_cache_pending_hits = 0
	L1I_total_cache_reservation_fails = 0
L1D_cache:
	L1D_cache_core[0]: Access = 34965, Miss = 30428, Miss_rate = 0.870, Pending_hits = 0, Reservation_fails = 137
	L1D_cache_core[1]: Access = 31635, Miss = 27674, Miss_rate = 0.875, Pending_hits = 0, Reservation_fails = 0
	L1D_cache_core[2]: Access = 36630, Miss = 31865, Miss_rate = 0.870, Pending_hits = 0, Reservation_fails = 0
	L1D_cache_core[3]: Access = 36630, Miss = 31580, Miss_rate = 0.862, Pending_hits = 0, Reservation_fails = 0
	L1D_cache_core[4]: Access = 33300, Miss = 29023, Miss_rate = 0.872, Pending_hits = 0, Reservation_fails = 0
	L1D_cache_core[5]: Access = 31635, Miss = 27827, Miss_rate = 0.880, Pending_hits = 0, Reservation_fails = 151
	L1D_cache_core[6]: Access = 33300, Miss = 29050, Miss_rate = 0.872, Pending_hits = 0, Reservation_fails = 0
	L1D_cache_core[7]: Access = 36630, Miss = 31306, Miss_rate = 0.855, Pending_hits = 0, Reservation_fails = 0
	L1D_cache_core[8]: Access = 34965, Miss = 30523, Miss_rate = 0.873, Pending_hits = 0, Reservation_fails = 0
	L1D_cache_core[9]: Access = 33300, Miss = 28785, Miss_rate = 0.864, Pending_hits = 0, Reservation_fails = 0
	L1D_cache_core[10]: Access = 34965, Miss = 30177, Miss_rate = 0.863, Pending_hits = 0, Reservation_fails = 65
	L1D_cache_core[11]: Access = 31635, Miss = 27757, Miss_rate = 0.877, Pending_hits = 0, Reservation_fails = 35
	L1D_cache_core[12]: Access = 31635, Miss = 27568, Miss_rate = 0.871, Pending_hits = 0, Reservation_fails = 0
	L1D_cache_core[13]: Access = 34965, Miss = 30239, Miss_rate = 0.865, Pending_hits = 0, Reservation_fails = 0
	L1D_cache_core[14]: Access = 36630, Miss = 31389, Miss_rate = 0.857, Pending_hits = 0, Reservation_fails = 0
	L1D_cache_core[15]: Access = 31635, Miss = 27746, Miss_rate = 0.877, Pending_hits = 0, Reservation_fails = 0
	L1D_cache_core[16]: Access = 29970, Miss = 26355, Miss_rate = 0.879, Pending_hits = 0, Reservation_fails = 0
	L1D_cache_core[17]: Access = 33300, Miss = 29039, Miss_rate = 0.872, Pending_hits = 0, Reservation_fails = 273
	L1D_cache_core[18]: Access = 33300, Miss = 29155, Miss_rate = 0.876, Pending_hits = 0, Reservation_fails = 0
	L1D_cache_core[19]: Access = 33300, Miss = 29023, Miss_rate = 0.872, Pending_hits = 0, Reservation_fails = 32
	L1D_cache_core[20]: Access = 34965, Miss = 30283, Miss_rate = 0.866, Pending_hits = 0, Reservation_fails = 0
	L1D_cache_core[21]: Access = 31635, Miss = 27834, Miss_rate = 0.880, Pending_hits = 0, Reservation_fails = 0
	L1D_cache_core[22]: Access = 33300, Miss = 28799, Miss_rate = 0.865, Pending_hits = 0, Reservation_fails = 0
	L1D_cache_core[23]: Access = 29970, Miss = 26602, Miss_rate = 0.888, Pending_hits = 0, Reservation_fails = 0
	L1D_cache_core[24]: Access = 34965, Miss = 30292, Miss_rate = 0.866, Pending_hits = 0, Reservation_fails = 0
	L1D_cache_core[25]: Access = 31635, Miss = 27779, Miss_rate = 0.878, Pending_hits = 0, Reservation_fails = 0
	L1D_cache_core[26]: Access = 33300, Miss = 29154, Miss_rate = 0.875, Pending_hits = 0, Reservation_fails = 0
	L1D_cache_core[27]: Access = 31635, Miss = 27803, Miss_rate = 0.879, Pending_hits = 0, Reservation_fails = 362
	L1D_cache_core[28]: Access = 31635, Miss = 27793, Miss_rate = 0.879, Pending_hits = 0, Reservation_fails = 0
	L1D_cache_core[29]: Access = 29970, Miss = 26426, Miss_rate = 0.882, Pending_hits = 0, Reservation_fails = 35
	L1D_cache_core[30]: Access = 33300, Miss = 29209, Miss_rate = 0.877, Pending_hits = 0, Reservation_fails = 26
	L1D_cache_core[31]: Access = 33300, Miss = 28804, Miss_rate = 0.865, Pending_hits = 0, Reservation_fails = 44
	L1D_cache_core[32]: Access = 31635, Miss = 27806, Miss_rate = 0.879, Pending_hits = 0, Reservation_fails = 344
	L1D_cache_core[33]: Access = 31635, Miss = 27729, Miss_rate = 0.877, Pending_hits = 0, Reservation_fails = 0
	L1D_cache_core[34]: Access = 31635, Miss = 27637, Miss_rate = 0.874, Pending_hits = 0, Reservation_fails = 208
	L1D_cache_core[35]: Access = 38295, Miss = 32723, Miss_rate = 0.854, Pending_hits = 0, Reservation_fails = 0
	L1D_cache_core[36]: Access = 34965, Miss = 30432, Miss_rate = 0.870, Pending_hits = 0, Reservation_fails = 0
	L1D_cache_core[37]: Access = 33300, Miss = 29015, Miss_rate = 0.871, Pending_hits = 0, Reservation_fails = 0
	L1D_cache_core[38]: Access = 31635, Miss = 27694, Miss_rate = 0.875, Pending_hits = 0, Reservation_fails = 0
	L1D_cache_core[39]: Access = 31635, Miss = 27484, Miss_rate = 0.869, Pending_hits = 0, Reservation_fails = 0
	L1D_cache_core[40]: Access = 33300, Miss = 28762, Miss_rate = 0.864, Pending_hits = 0, Reservation_fails = 61
	L1D_cache_core[41]: Access = 33300, Miss = 29064, Miss_rate = 0.873, Pending_hits = 0, Reservation_fails = 0
	L1D_cache_core[42]: Access = 31635, Miss = 27703, Miss_rate = 0.876, Pending_hits = 0, Reservation_fails = 31
	L1D_cache_core[43]: Access = 34965, Miss = 30220, Miss_rate = 0.864, Pending_hits = 0, Reservation_fails = 733
	L1D_cache_core[44]: Access = 31635, Miss = 27649, Miss_rate = 0.874, Pending_hits = 0, Reservation_fails = 0
	L1D_cache_core[45]: Access = 29970, Miss = 26512, Miss_rate = 0.885, Pending_hits = 0, Reservation_fails = 0
	L1D_cache_core[46]: Access = 33300, Miss = 29246, Miss_rate = 0.878, Pending_hits = 0, Reservation_fails = 0
	L1D_cache_core[47]: Access = 31635, Miss = 27562, Miss_rate = 0.871, Pending_hits = 0, Reservation_fails = 0
	L1D_cache_core[48]: Access = 31635, Miss = 27914, Miss_rate = 0.882, Pending_hits = 0, Reservation_fails = 137
	L1D_cache_core[49]: Access = 34965, Miss = 30494, Miss_rate = 0.872, Pending_hits = 0, Reservation_fails = 261
	L1D_cache_core[50]: Access = 33300, Miss = 28736, Miss_rate = 0.863, Pending_hits = 0, Reservation_fails = 0
	L1D_cache_core[51]: Access = 34965, Miss = 30289, Miss_rate = 0.866, Pending_hits = 0, Reservation_fails = 233
	L1D_cache_core[52]: Access = 31635, Miss = 27302, Miss_rate = 0.863, Pending_hits = 0, Reservation_fails = 206
	L1D_cache_core[53]: Access = 31635, Miss = 27503, Miss_rate = 0.869, Pending_hits = 0, Reservation_fails = 718
	L1D_cache_core[54]: Access = 31635, Miss = 27729, Miss_rate = 0.877, Pending_hits = 0, Reservation_fails = 0
	L1D_cache_core[55]: Access = 31635, Miss = 27602, Miss_rate = 0.873, Pending_hits = 0, Reservation_fails = 38
	L1D_cache_core[56]: Access = 33300, Miss = 28727, Miss_rate = 0.863, Pending_hits = 0, Reservation_fails = 7
	L1D_cache_core[57]: Access = 34965, Miss = 30301, Miss_rate = 0.867, Pending_hits = 0, Reservation_fails = 17
	L1D_cache_core[58]: Access = 33300, Miss = 29027, Miss_rate = 0.872, Pending_hits = 0, Reservation_fails = 11
	L1D_cache_core[59]: Access = 34965, Miss = 30198, Miss_rate = 0.864, Pending_hits = 0, Reservation_fails = 83
	L1D_cache_core[60]: Access = 34965, Miss = 30218, Miss_rate = 0.864, Pending_hits = 0, Reservation_fails = 0
	L1D_cache_core[61]: Access = 33300, Miss = 29044, Miss_rate = 0.872, Pending_hits = 0, Reservation_fails = 50
	L1D_cache_core[62]: Access = 33300, Miss = 28938, Miss_rate = 0.869, Pending_hits = 0, Reservation_fails = 0
	L1D_cache_core[63]: Access = 34965, Miss = 30354, Miss_rate = 0.868, Pending_hits = 0, Reservation_fails = 0
	L1D_cache_core[64]: Access = 33300, Miss = 29035, Miss_rate = 0.872, Pending_hits = 0, Reservation_fails = 0
	L1D_cache_core[65]: Access = 34965, Miss = 30282, Miss_rate = 0.866, Pending_hits = 0, Reservation_fails = 0
	L1D_cache_core[66]: Access = 33300, Miss = 29086, Miss_rate = 0.873, Pending_hits = 0, Reservation_fails = 0
	L1D_cache_core[67]: Access = 34965, Miss = 30551, Miss_rate = 0.874, Pending_hits = 0, Reservation_fails = 0
	L1D_cache_core[68]: Access = 33300, Miss = 29048, Miss_rate = 0.872, Pending_hits = 0, Reservation_fails = 0
	L1D_cache_core[69]: Access = 29970, Miss = 26414, Miss_rate = 0.881, Pending_hits = 0, Reservation_fails = 432
	L1D_cache_core[70]: Access = 31635, Miss = 27579, Miss_rate = 0.872, Pending_hits = 0, Reservation_fails = 0
	L1D_cache_core[71]: Access = 31635, Miss = 27558, Miss_rate = 0.871, Pending_hits = 0, Reservation_fails = 0
	L1D_cache_core[72]: Access = 29970, Miss = 26353, Miss_rate = 0.879, Pending_hits = 0, Reservation_fails = 0
	L1D_cache_core[73]: Access = 29970, Miss = 26342, Miss_rate = 0.879, Pending_hits = 0, Reservation_fails = 473
	L1D_cache_core[74]: Access = 31635, Miss = 27638, Miss_rate = 0.874, Pending_hits = 0, Reservation_fails = 351
	L1D_cache_core[75]: Access = 34965, Miss = 30229, Miss_rate = 0.865, Pending_hits = 0, Reservation_fails = 529
	L1D_cache_core[76]: Access = 31635, Miss = 27554, Miss_rate = 0.871, Pending_hits = 0, Reservation_fails = 572
	L1D_cache_core[77]: Access = 29970, Miss = 26591, Miss_rate = 0.887, Pending_hits = 0, Reservation_fails = 1632
	L1D_cache_core[78]: Access = 29970, Miss = 26564, Miss_rate = 0.886, Pending_hits = 0, Reservation_fails = 0
	L1D_cache_core[79]: Access = 33300, Miss = 28924, Miss_rate = 0.869, Pending_hits = 0, Reservation_fails = 0
	L1D_total_cache_accesses = 2637360
	L1D_total_cache_misses = 2298649
	L1D_total_cache_miss_rate = 0.8716
	L1D_total_cache_pending_hits = 0
	L1D_total_cache_reservation_fails = 8287
	L1D_cache_data_port_util = 0.022
	L1D_cache_fill_port_util = 0.021
L1C_cache:
	L1C_total_cache_accesses = 0
	L1C_total_cache_misses = 0
	L1C_total_cache_pending_hits = 0
	L1C_total_cache_reservation_fails = 0
L1T_cache:
	L1T_total_cache_accesses = 8175273
	L1T_total_cache_misses = 15347
	L1T_total_cache_miss_rate = 0.0019
	L1T_total_cache_pending_hits = 8159926
	L1T_total_cache_reservation_fails = 0

Total_core_cache_stats:
	Total_core_cache_stats_breakdown[GLOBAL_ACC_R][HIT] = 338711
	Total_core_cache_stats_breakdown[GLOBAL_ACC_R][HIT_RESERVED] = 0
	Total_core_cache_stats_breakdown[GLOBAL_ACC_R][MISS] = 324189
	Total_core_cache_stats_breakdown[GLOBAL_ACC_R][RESERVATION_FAIL] = 69
	Total_core_cache_stats_breakdown[GLOBAL_ACC_R][SECTOR_MISS] = 249484
	Total_core_cache_stats_breakdown[LOCAL_ACC_R][HIT] = 0
	Total_core_cache_stats_breakdown[LOCAL_ACC_R][HIT_RESERVED] = 0
	Total_core_cache_stats_breakdown[LOCAL_ACC_R][MISS] = 0
	Total_core_cache_stats_breakdown[LOCAL_ACC_R][RESERVATION_FAIL] = 0
	Total_core_cache_stats_breakdown[LOCAL_ACC_R][SECTOR_MISS] = 0
	Total_core_cache_stats_breakdown[CONST_ACC_R][HIT] = 0
	Total_core_cache_stats_breakdown[CONST_ACC_R][HIT_RESERVED] = 0
	Total_core_cache_stats_breakdown[CONST_ACC_R][MISS] = 0
	Total_core_cache_stats_breakdown[CONST_ACC_R][RESERVATION_FAIL] = 0
	Total_core_cache_stats_breakdown[CONST_ACC_R][SECTOR_MISS] = 0
	Total_core_cache_stats_breakdown[TEXTURE_ACC_R][HIT] = 0
	Total_core_cache_stats_breakdown[TEXTURE_ACC_R][HIT_RESERVED] = 8159926
	Total_core_cache_stats_breakdown[TEXTURE_ACC_R][MISS] = 15347
	Total_core_cache_stats_breakdown[TEXTURE_ACC_R][RESERVATION_FAIL] = 0
	Total_core_cache_stats_breakdown[TEXTURE_ACC_R][SECTOR_MISS] = 0
	Total_core_cache_stats_breakdown[GLOBAL_ACC_W][HIT] = 0
	Total_core_cache_stats_breakdown[GLOBAL_ACC_W][HIT_RESERVED] = 0
	Total_core_cache_stats_breakdown[GLOBAL_ACC_W][MISS] = 1724976
	Total_core_cache_stats_breakdown[GLOBAL_ACC_W][RESERVATION_FAIL] = 8218
	Total_core_cache_stats_breakdown[GLOBAL_ACC_W][SECTOR_MISS] = 0
	Total_core_cache_stats_breakdown[LOCAL_ACC_W][HIT] = 0
	Total_core_cache_stats_breakdown[LOCAL_ACC_W][HIT_RESERVED] = 0
	Total_core_cache_stats_breakdown[LOCAL_ACC_W][MISS] = 0
	Total_core_cache_stats_breakdown[LOCAL_ACC_W][RESERVATION_FAIL] = 0
	Total_core_cache_stats_breakdown[LOCAL_ACC_W][SECTOR_MISS] = 0
	Total_core_cache_stats_breakdown[L1_WRBK_ACC][HIT] = 0
	Total_core_cache_stats_breakdown[L1_WRBK_ACC][HIT_RESERVED] = 0
	Total_core_cache_stats_breakdown[L1_WRBK_ACC][MISS] = 0
	Total_core_cache_stats_breakdown[L1_WRBK_ACC][RESERVATION_FAIL] = 0
	Total_core_cache_stats_breakdown[L1_WRBK_ACC][SECTOR_MISS] = 0
	Total_core_cache_stats_breakdown[L2_WRBK_ACC][HIT] = 0
	Total_core_cache_stats_breakdown[L2_WRBK_ACC][HIT_RESERVED] = 0
	Total_core_cache_stats_breakdown[L2_WRBK_ACC][MISS] = 0
	Total_core_cache_stats_breakdown[L2_WRBK_ACC][RESERVATION_FAIL] = 0
	Total_core_cache_stats_breakdown[L2_WRBK_ACC][SECTOR_MISS] = 0
	Total_core_cache_stats_breakdown[INST_ACC_R][HIT] = 0
	Total_core_cache_stats_breakdown[INST_ACC_R][HIT_RESERVED] = 0
	Total_core_cache_stats_breakdown[INST_ACC_R][MISS] = 0
	Total_core_cache_stats_breakdown[INST_ACC_R][RESERVATION_FAIL] = 0
	Total_core_cache_stats_breakdown[INST_ACC_R][SECTOR_MISS] = 0
	Total_core_cache_stats_breakdown[L1_WR_ALLOC_R][HIT] = 0
	Total_core_cache_stats_breakdown[L1_WR_ALLOC_R][HIT_RESERVED] = 0
	Total_core_cache_stats_breakdown[L1_WR_ALLOC_R][MISS] = 0
	Total_core_cache_stats_breakdown[L1_WR_ALLOC_R][RESERVATION_FAIL] = 0
	Total_core_cache_stats_breakdown[L1_WR_ALLOC_R][SECTOR_MISS] = 0
	Total_core_cache_stats_breakdown[L2_WR_ALLOC_R][HIT] = 0
	Total_core_cache_stats_breakdown[L2_WR_ALLOC_R][HIT_RESERVED] = 0
	Total_core_cache_stats_breakdown[L2_WR_ALLOC_R][MISS] = 0
	Total_core_cache_stats_breakdown[L2_WR_ALLOC_R][RESERVATION_FAIL] = 0
	Total_core_cache_stats_breakdown[L2_WR_ALLOC_R][SECTOR_MISS] = 0
	Total_core_cache_stats_breakdown[GLOBAL_ACC_R][TOTAL_ACCESS] = 912384
	Total_core_cache_stats_breakdown[TEXTURE_ACC_R][TOTAL_ACCESS] = 8175273
	Total_core_cache_stats_breakdown[GLOBAL_ACC_W][TOTAL_ACCESS] = 1724976

Total_core_cache_fail_stats:
	Total_core_cache_fail_stats_breakdown[GLOBAL_ACC_R][MISS_QUEUE_FULL] = 69
	Total_core_cache_fail_stats_breakdown[GLOBAL_ACC_W][MISS_QUEUE_FULL] = 8218
Shader 0 warp_id issue ditsribution:
warp_id:
0, 1, 2, 3, 4, 5, 6, 7, 8, 9, 10, 11, 12, 13, 14, 15, 16, 17, 18, 19, 20, 21, 22, 23, 24, 25, 26, 27, 28, 29, 30, 31, 32, 33, 34, 35, 
distro:
5002, 5002, 2501, 2501, 5002, 5002, 2501, 2501, 5002, 5002, 2501, 2501, 2501, 2501, 2501, 2501, 2501, 2501, 2501, 2501, 2501, 2501, 2501, 2501, 2501, 2501, 2501, 2501, 2501, 2501, 2501, 2501, 2501, 2501, 2501, 2501, 
gpgpu_n_tot_thrd_icount = 253541376
gpgpu_n_tot_w_icount = 7923168
gpgpu_n_stall_shd_mem = 10705275
gpgpu_n_mem_read_local = 0
gpgpu_n_mem_write_local = 0
gpgpu_n_mem_read_global = 324996
gpgpu_n_mem_write_global = 3449952
gpgpu_n_mem_texture = 15347
gpgpu_n_mem_const = 0
gpgpu_n_load_insn  = 27599616
gpgpu_n_store_insn = 3449952
gpgpu_n_shmem_insn = 0
gpgpu_n_sstarr_insn = 0
gpgpu_n_tex_insn = 27599616
gpgpu_n_const_mem_insn = 0
gpgpu_n_param_mem_insn = 386496
gpgpu_n_shmem_bkconflict = 0
gpgpu_n_cache_bkconflict = 0
gpgpu_n_intrawarp_mshr_merge = 0
gpgpu_n_cmem_portconflict = 0
gpgpu_stall_shd_mem[c_mem][resource_stall] = 0
gpgpu_stall_shd_mem[s_mem][bk_conf] = 0
gpgpu_stall_shd_mem[gl_mem][resource_stall] = 1671467
gpgpu_stall_shd_mem[gl_mem][coal_stall] = 1667952
gpgpu_stall_shd_mem[gl_mem][data_port_stall] = 0
gpu_reg_bank_conflict_stalls = 0
Warp Occupancy Distribution:
Stall:22393786	W0_Idle:3361562	W0_Scoreboard:26972072	W1:0	W2:0	W3:0	W4:0	W5:0	W6:0	W7:0	W8:0	W9:0	W10:0	W11:0	W12:0	W13:0	W14:0	W15:0	W16:0	W17:0	W18:0	W19:0	W20:0	W21:0	W22:0	W23:0	W24:0	W25:0	W26:0	W27:0	W28:1938816	W29:2022768	W30:0	W31:0	W32:3961584
single_issue_nums: WS0:1915766	WS1:1915766	WS2:2045818	WS3:2045818	
dual_issue_nums: WS0:0	WS1:0	WS2:0	WS3:0	
traffic_breakdown_coretomem[GLOBAL_ACC_R] = 2599968 {8:324996,}
traffic_breakdown_coretomem[GLOBAL_ACC_W] = 82798848 {8:1724976,40:1724976,}
traffic_breakdown_coretomem[TEXTURE_ACC_R] = 122776 {8:15347,}
traffic_breakdown_memtocore[GLOBAL_ACC_R] = 12999840 {40:324996,}
traffic_breakdown_memtocore[GLOBAL_ACC_W] = 27599616 {8:3449952,}
traffic_breakdown_memtocore[TEXTURE_ACC_R] = 2455520 {40:61388,}
maxmflatency = 5647 
max_icnt2mem_latency = 5321 
maxmrqlatency = 1670 
max_icnt2sh_latency = 1005 
averagemflatency = 347 
avg_icnt2mem_latency = 122 
avg_mrq_latency = 129 
avg_icnt2sh_latency = 22 
mrq_lat_table:76963 	79121 	48756 	67441 	121662 	252696 	399578 	422338 	212923 	29925 	412 	0 	0 	0 	0 	0 	0 	0 	0 	0 	0 	0 	0 	0 	0 	0 	0 	0 	0 	0 	0 	0 	
dq_lat_table:0 	0 	0 	0 	0 	0 	0 	0 	0 	0 	0 	0 	0 	0 	0 	0 	0 	0 	0 	0 	0 	0 	0 	0 	0 	0 	0 	0 	0 	0 	0 	0 	
mf_lat_table:0 	0 	0 	0 	0 	0 	0 	2497433 	949952 	214588 	104802 	64334 	5227 	0 	0 	0 	0 	0 	0 	0 	0 	0 	0 	0 	0 	0 	0 	0 	0 	0 	0 	0 	
icnt2mem_lat_table:0 	152991 	131495 	205884 	1371334 	989491 	477527 	176857 	102586 	69607 	66529 	43550 	2444 	0 	0 	0 	0 	0 	0 	0 	0 	0 	0 	0 	
icnt2sh_lat_table:0 	1477948 	559541 	564710 	595942 	427898 	149271 	16094 	19507 	25425 	0 	0 	0 	0 	0 	0 	0 	0 	0 	0 	0 	0 	0 	0 	
mf_lat_pw_table:0 	0 	0 	0 	0 	0 	0 	278 	101 	11 	9 	9 	0 	0 	0 	0 	0 	0 	0 	0 	0 	0 	0 	0 	0 	0 	0 	0 	0 	0 	0 	0 	
maximum concurrent accesses to same row:
dram[0]:        44        51        48        43        37        35        51        49        52        51        58        54        49        41        44        56 
dram[1]:        42        49        51        46        33        56        42        49        44        44        43        58        44        42        46        54 
dram[2]:        35        43        51        43        34        56        43        49        42        39        45        49        43        42        49        58 
dram[3]:        43        48        55        44        36        56        35        35        51        57        35        49        51        41        49        56 
dram[4]:        55        44        57        44        38        56        41        36        50        51        35        43        44        34        49        56 
dram[5]:        36        53        56        51        41        50        37        57        49        50        42        43        50        35        54        57 
dram[6]:        36        56        56        47        44        51        42        42        43        46        55        45        49        43        58        50 
dram[7]:        36        56        56        42        50        52        42        44        47        44        58        44        49        50        58        58 
dram[8]:        37        59        56        43        38        51        42        43        42        44        58        42        54        45        58        51 
dram[9]:        38        56        58        47        39        49        40        42        42        43        40        42        57        42        56        50 
dram[10]:        35        58        58        35        40        56        42        46        42        46        44        42        58        45        56        49 
dram[11]:        35        58        58        35        44        58        28        47        43        58        35        42        58        50        37        49 
dram[12]:        35        58        42        42        44        59        44        35        43        58        35        49        58        36        42        54 
dram[13]:        36        57        40        44        42        58        47        51        46        58        33        52        54        37        43        57 
dram[14]:        41        58        37        44        29        57        51        56        49        58        42        57        56        40        49        58 
dram[15]:        36        56        56        56        35        57        51        53        49        58        44        51        56        42        48        58 
dram[16]:        47        50        53        58        36        51        35        51        48        56        43        57        51        42        47        58 
dram[17]:        51        51        56        58        46        51        44        49        58        56        35        51        50        42        48        57 
dram[18]:        51        52        69        54        37        49        43        48        44        56        35        49        58        43        49        56 
dram[19]:        48        58        50        50        35        50        49        37        44        58        35        49        52        45        50        56 
dram[20]:        36        58        66        51        41        51        51        49        49        58        45        49        49        43        49        56 
dram[21]:        48        56        66        46        39        52        51        50        49        58        40        53        49        50        49        57 
dram[22]:        42        50        49        42        39        49        45        50        44        58        44        44        53        52        56        58 
dram[23]:        50        58        43        43        36        49        49        48        49        56        44        43        59        51        99        58 
dram[24]:        51        53        44        42        42        49        49        51        49        50        45        45        58        51       105        51 
dram[25]:        49        50        43        50        35        48        49        49        37        51        43        44        57        50       105        45 
dram[26]:        51        49        42        48        40        44        50        49        38        50        49        44        56        47        55        36 
dram[27]:        51        49        49        45        49        43        35        43        41        44        44        53        51        42        54        37 
dram[28]:        51        49        45        44        49        47        35        44        41        47        43        49        43        42        57        42 
dram[29]:        39        50        36        51        53        57        37        42        42        42        42        43        41        42        59        43 
dram[30]:        42        50        42        51        43        44        43        51        43        43        43        55        36        42        45        51 
dram[31]:        43        51        42        51        41        35        44        44        51        53        45        58        37        41        50        51 
maximum service time to same row:
dram[0]:     14112     13855     14131     14252     13831     13446     13746     14093     13968     13858     14792     15072     13991     14057     13794     13803 
dram[1]:     14158     14530     14115     14248     13819     13442     13457     14068     13955     13846     14887     14855     13987     14266     13923     13924 
dram[2]:     14284     14244     13984     14261     13810     13493     13449     14064     13940     13835     14943     14701     15778     14228     13913     13916 
dram[3]:     14261     14136     13976     14389     13778     13485     13442     14055     13925     13823     14907     14689     15657     14196     13903     13909 
dram[4]:     14224     14124     13971     14377     13770     13478     13434     14036     13915     13812     14783     14666     15798     14197     13893     13901 
dram[5]:     14208     14128     13963     14289     13763     13473     13430     14013     13932     13695     14458     14669     16099     14376     15389     13889 
dram[6]:     14238     14112     13959     14292     13755     13450     13517     14008     13927     13687     14561     14031     14028     14388     15505     13995 
dram[7]:     14209     14108     14117     14253     13750     13445     13509     13952     13775     13682     14451     14016     14025     14365     15544     13984 
dram[8]:     14224     14330     14831     14238     13631     13437     13501     13939     13763     13671     14421     13996     14001     14333     15168     13979 
dram[9]:     14157     14815     14730     14258     13623     13426     13497     13931     13755     13666     14409     13985     13989     14734     14300     13967 
dram[10]:     14144     14950     14714     14374     13616     13418     13911     13923     13750     13658     14807     13964     13952     15818     14329     14273 
dram[11]:     14120     14971     14606     14353     13610     13413     13885     13915     13744     13651     14755     14250     13916     15850     14280     14236 
dram[12]:     14100     14205     14398     14280     13604     13405     13866     13912     13843     13643     14701     14176     13897     15769     14192     14201 
dram[13]:     14067     14200     14350     14221     13718     13398     13850     14071     13831     13639     14678     14149     13881     15701     14170     14264 
dram[14]:     14551     14229     14330     14246     13710     13393     13779     14088     13826     13810     15124     14161     13867     15553     14350     14325 
dram[15]:     14543     14205     14301     14258     13703     13695     13775     14084     13818     13802     15057     14523     14069     15602     14338     14358 
dram[16]:     14559     14115     14306     14244     13695     13687     13763     14068     13816     13795     15075     14839     14040     15533     14333     14305 
dram[17]:     14466     14079     14555     14173     14035     13679     13752     14509     13807     13787     15603     14882     14021     15514     14297     14285 
dram[18]:     14435     14084     14467     14051     14004     13671     13747     14469     13799     13774     15369     14882     13980     15647     14194     14272 
dram[19]:     14463     14049     14406     14027     13996     13612     13928     13554     13506     13766     15237     14717     13980     16783     14181     13933 
dram[20]:     14465     14044     14233     14015     13610     13604     13904     13546     13501     13755     14390     14567     14169     16135     14152     13925 
dram[21]:     14498     14416     14225     14004     13603     13598     13883     13541     13493     13747     14382     14586     14145     16176     13939     13920 
dram[22]:     14469     14393     14196     14313     13596     13591     13738     13533     13485     13740     14365     14499     14104     16275     13904     13903 
dram[23]:     13802     14475     14188     14341     13586     13588     13730     13526     13481     13754     14348     14643     14087     16437     13859     13895 
dram[24]:     13786     14590     14149     14325     13581     13667     13723     13525     13608     13746     14336     15012     14221     15144     13855     13888 
dram[25]:     13768     14739     14143     14316     13578     13662     13715     13614     13600     13738     14360     14987     14209     15124     13848     13881 
dram[26]:     13756     14437     14141     14238     13570     13651     13710     13606     13592     13731     14575     14827     14220     14995     13854     13872 
dram[27]:     13742     14384     14117     14228     13562     13646     13706     13598     13582     13734     14474     14882     14193     15036     13848     13862 
dram[28]:     13739     14200     14123     14346     13554     13643     13711     13596     13751     14084     14469     15216     14181     15103     13839     13818 
dram[29]:     13888     14180     14099     14401     13466     13759     13703     13915     13778     14069     14513     15488     14140     14055     13834     13812 
dram[30]:     13872     14166     14316     14178     13461     13754     13691     13907     13876     14043     15275     15288     14087     14025     13822     13803 
dram[31]:     13858     14120     14298     14139     13453     13746     13688     13900     13867     14028     15167     15136     14067     14003     13811     13798 
average row accesses per activate:
dram[0]: 10.874552 10.189189  9.636943 11.370787 12.051118 11.443149 11.784257 13.186275 13.445230 12.112211 10.956522 10.446366 10.472222 10.600000 10.255973 11.521072 
dram[1]: 10.130435 10.317406 10.910072 10.562937 12.135048 11.623145 11.574286 13.133117 12.955782 11.563292 10.719858 11.862745 11.691120 10.978102 10.023412 12.338776 
dram[2]: 10.177853 10.880866 11.248148 10.600000 12.060703 11.905775 11.690751 12.863057 14.605364 11.518867 10.517361 10.949091 10.610526 11.007273 11.603847 11.781250 
dram[3]: 10.212121 11.208179 11.286245 10.899281 11.883281 12.328075 11.988166 12.834921 14.231343 12.072369 10.524305 10.920000 11.043796 11.515152 11.551724 10.945652 
dram[4]: 11.282528 11.348485 11.412879 11.517110 11.821875 13.013289 11.822675 11.788405 13.564285 12.297659 10.122924 10.312715 11.000000 11.188889 11.062500 12.151395 
dram[5]: 10.992727 10.956204 11.551724 11.018182 12.128205 12.836065 12.171171 12.158683 13.329824 11.861290 10.052980 11.029411 11.664093 10.989051 11.932806 12.982979 
dram[6]: 10.353951 12.814346 12.859574 10.443299 11.429003 12.438095 11.857142 11.822158 14.465649 12.291946 10.057047 11.826087 11.420455 11.113971 11.449057 10.615385 
dram[7]:  9.908196 11.835938 12.036000 10.691228 12.253246 12.117284 11.771014 13.146580 13.142361 13.129032 10.938628 10.770609 10.681979 11.513308 11.367042 10.578397 
dram[8]: 10.814285 11.237918 11.579150 13.377193 11.736025 12.739413 12.026707 12.860317 12.908163 13.494506 10.906137 10.000000 10.610526 11.113971 10.096666 11.072727 
dram[9]: 10.290102 11.420455 11.996016 11.610687 10.916185 12.484076 11.785507 12.847619 12.305195 12.971731 10.491289 10.790035 11.555133 10.513986  9.739550 11.767442 
dram[10]:  9.788961 11.532319 13.349558 10.863799 10.968116 12.339622 11.539773 11.485795 12.655519 14.138461 11.218518 11.065694 11.524714  9.930464 10.935018 11.206642 
dram[11]:  9.615385 11.976285 13.030303 10.318493 12.313916 12.077161 10.892473 12.916667 13.730909 15.763948 11.374532 10.237288 10.946043 10.426117 11.354478 10.508651 
dram[12]: 10.210170 10.971014 10.894928 11.648648 11.557927 13.515571 11.693642 11.480114 12.514852 16.030703 11.328359 10.030000 10.903226 10.372014 10.429553 10.559028 
dram[13]: 10.540070 11.275093 10.503496 11.569231 11.971786 13.698246 12.020772 11.068493 12.573334 14.939024 10.710247 10.189189 11.825582 10.204698 10.938628 12.555555 
dram[14]: 10.261905 11.498114 11.309702 11.003650 11.298817 12.209375 11.897361 11.850877 13.670290 14.778226 10.400685 10.441380 11.150183 10.265993 11.315789 12.164659 
dram[15]: 10.103679 11.860465 11.441509  9.684888 10.874644 13.070000 12.059347 11.300836 14.147286 13.579926 11.698842 11.051282 11.275093 11.025362 11.835294 10.796429 
dram[16]: 10.415808 11.707692 10.663120 10.978339 11.426427 13.006644 14.051903 10.749333 12.673684 13.863636 11.871595 11.210332 11.047445 11.258303 11.827451 11.136532 
dram[17]: 10.237288 12.373983 10.554386 11.503788 10.647058 13.579861 13.903780 11.270195 12.658537 14.208494 10.554007 12.000000 11.843750 10.072847 11.174074 11.219331 
dram[18]: 10.505263 11.603847 10.909420 10.792857 10.434066 12.771987 13.829351 10.578534 13.259124 13.455882 10.503496 12.932489 11.976285 10.608392 11.073260 12.137096 
dram[19]: 10.293515 12.120000 11.626923 11.128676 10.160858 13.202021 13.103559 10.549738 13.579926 14.142858  9.891447 13.094420 11.948413 10.974638 12.794118 11.069853 
dram[20]: 10.508711 12.263158 10.654929 11.255555 10.675824 12.064615 13.543624 11.444759 13.901515 14.100386 10.534965 12.323887 12.334694 11.798450 12.011811 10.963636 
dram[21]: 11.180147 12.173388 12.055555 11.515152 11.143267 13.494845 14.514493 11.227147 13.838346 14.657258 10.806452 12.184000 11.867188 11.143382 11.018182 11.642307 
dram[22]: 11.161765 10.938406 13.147826 10.931159 11.142450 13.493103 13.699658 10.661417 14.247105 13.927481 10.817857 12.578512 11.319702 10.400685 11.785993 11.725869 
dram[23]: 10.267797 11.402256 14.431279 11.620689 11.169054 12.676375 12.663522 10.824468 14.306202 14.245136 10.171718 12.843882 11.460378 11.628352 12.313008 11.044118 
dram[24]:  9.838188 10.881721 13.343613 10.856631 10.861111 13.080000 12.521739 11.522727 13.370909 13.923954 11.177122 12.627615 11.206642 12.172690 12.533058 10.345890 
dram[25]: 10.588850  9.340557 11.630769 11.933071 10.880223 12.914474 12.114458 10.978261 12.175497 14.547619 11.289963 11.174074 11.483019 12.213710 11.905138 10.228956 
dram[26]: 10.829182  9.120481 10.567945 11.781250 10.941011 13.819788 12.307927 11.943953 12.365772 14.181467 10.096666 11.500000 11.664123 10.792114 11.174721 10.389078 
dram[27]: 10.580420  9.567823 11.835938 11.062500 11.050704 12.963576 12.147147 11.354930 12.390573 13.542436 10.316326 11.909804 10.864285 11.103321 11.477099 10.273648 
dram[28]: 10.178452  9.547170 11.244445  9.744336 11.497076 13.688811 11.658959 11.835294 12.262459 13.737827 10.375426 11.403773 10.397923 11.789884 11.680934 10.411765 
dram[29]: 10.645614  9.259147 10.585366 10.949091 10.933333 13.117450 11.598854 12.047761 11.669841 14.100386 10.631579 11.276119 10.293515 11.047445 10.461805  9.315789 
dram[30]: 10.949640  9.265244  9.459375 10.996350 11.882175 13.498270 13.048544 12.556250 11.411215 14.794354 10.226352 10.325424 10.378007 10.266212 10.884892 10.137584 
dram[31]: 10.006622  9.540880 11.270370 10.273973 11.343930 12.783607 12.462963 11.356742 11.896104 15.312500  9.820847 11.113139 11.084558  9.993356 11.043956 10.538462 
average row locality = 1711815/147888 = 11.575077
number of total memory accesses made:
dram[0]:         0         0         0         0         0         0         0         0         0         0         0         0         0         0         0         0 
dram[1]:         0         0         0         0         0         0         0         0         0         0         0         0         0         0         0         0 
dram[2]:         0         0         0         0         0         0         0         0         0         0         0         0         0         0         0         0 
dram[3]:         0         0         0         0         0         0         0         0         0         0         0         0         0         0         0         0 
dram[4]:         0         0         0         0         0         0         0         0         0         0         0         0         0         0         0         0 
dram[5]:         0         0         0         0         0         0         0         0         0         0         0         0         0         0         0         0 
dram[6]:         0         0         0         0         0         0         0         0         0         0         0         0         0         0         0         0 
[...]
n_ref = 0 
n_req = 55978 
total_req = 125955 

Dual Bus Interface Util: 
issued_total_row = 11828 
issued_total_col = 125955 
Row_Bus_Util =  0.062821 
CoL_Bus_Util = 0.668974 
Either_Row_CoL_Bus_Util = 0.679240 
Issued_on_Two_Bus_Simul_Util = 0.052554 
issued_two_Eff = 0.077372 
queue_avg = 27.108206 


dram_util_bins: 0 0 0 0 0 0 0 0 0 0
dram_eff_bins: 0 0 0 0 0 0 0 0 0 0
mrqq: max=64 avg=27.1082
Memory Partition 28: 
Cache L2_bank_056:

Cache L2_bank_057:

In Dram Latency Queue (total = 0): 
DRAM[28]: 16 bks, busW=16 BL=2 CL=12, tRRD=3 tCCD=1, tRCD=12 tRAS=28 tRP=12 tRC=40
n_cmd=188281 n_nop=60454 n_act=5951 n_pre=5935 n_ref_event=0 n_req=55848 n_rd=892 n_rd_L2_A=0 n_write=0 n_wr_bk=124983 bw_util=0.6685
n_activity=149650 dram_eff=0.8411
bk0: 35a 132392i bk1: 39a 131668i bk2: 62a 134044i bk3: 46a 135038i bk4: 84a 124364i bk5: 80a 129815i bk6: 57a 126267i bk7: 61a 123892i bk8: 63a 129053i bk9: 58a 130499i bk10: 55a 132385i bk11: 46a 135657i bk12: 55a 134450i bk13: 38a 134071i bk14: 60a 136112i bk15: 53a 133798i 

------------------------------------------------------------------------

Row_Buffer_Locality = 0.893443
Row_Buffer_Locality_read = 0.698430
Row_Buffer_Locality_write = 0.896608
Bank_Level_Parallism = 6.658930
Bank_Level_Parallism_Col = 6.071762
Bank_Level_Parallism_Ready = 4.425931
write_to_read_ratio_blp_rw_average = 0.980223
GrpLevelPara = 3.211766 

BW Util details:
bwutil = 0.668549 
total_CMD = 188281 
util_bw = 125875 
Wasted_Col = 15376 
Wasted_Row = 3643 
Idle = 43387 

BW Util Bottlenecks: 
RCDc_limit = 2114 
RCDWRc_limit = 7078 
WTRc_limit = 1873 
RTWc_limit = 4127 
CCDLc_limit = 11008 
rwq = 0 
CCDLc_limit_alone = 10677 
WTRc_limit_alone = 1706 
RTWc_limit_alone = 3963 

Commands details: 
total_CMD = 188281 
n_nop = 60454 
Read = 892 
Write = 0 
L2_Alloc = 0 
L2_WB = 124983 
n_act = 5951 
n_pre = 5935 
n_ref = 0 
n_req = 55848 
total_req = 125875 

Dual Bus Interface Util: 
issued_total_row = 11886 
issued_total_col = 125875 
Row_Bus_Util =  0.063129 
CoL_Bus_Util = 0.668549 
Either_Row_CoL_Bus_Util = 0.678916 
Issued_on_Two_Bus_Simul_Util = 0.052762 
issued_two_Eff = 0.077714 
queue_avg = 27.408379 


dram_util_bins: 0 0 0 0 0 0 0 0 0 0
dram_eff_bins: 0 0 0 0 0 0 0 0 0 0
mrqq: max=64 avg=27.4084
Memory Partition 29: 
Cache L2_bank_058:

Cache L2_bank_059:

In Dram Latency Queue (total = 0): 
DRAM[29]: 16 bks, busW=16 BL=2 CL=12, tRRD=3 tCCD=1, tRCD=12 tRAS=28 tRP=12 tRC=40
n_cmd=188281 n_nop=60445 n_act=6030 n_pre=6014 n_ref_event=0 n_req=55889 n_rd=886 n_rd_L2_A=0 n_write=0 n_wr_bk=125012 bw_util=0.6687
n_activity=149514 dram_eff=0.842
bk0: 21a 131952i bk1: 52a 129835i bk2: 59a 133952i bk3: 45a 134647i bk4: 67a 125851i bk5: 86a 129644i bk6: 78a 126167i bk7: 55a 122422i bk8: 47a 127361i bk9: 69a 130491i bk10: 53a 132782i bk11: 40a 135327i bk12: 60a 132825i bk13: 47a 133648i bk14: 61a 134059i bk15: 46a 130707i 

------------------------------------------------------------------------

Row_Buffer_Locality = 0.892108
Row_Buffer_Locality_read = 0.688488
Row_Buffer_Locality_write = 0.895388
Bank_Level_Parallism = 6.740893
Bank_Level_Parallism_Col = 6.147673
Bank_Level_Parallism_Ready = 4.489325
write_to_read_ratio_blp_rw_average = 0.978824
GrpLevelPara = 3.213158 

BW Util details:
bwutil = 0.668671 
total_CMD = 188281 
util_bw = 125898 
Wasted_Col = 15341 
Wasted_Row = 3655 
Idle = 43387 

BW Util Bottlenecks: 
RCDc_limit = 2126 
RCDWRc_limit = 7074 
WTRc_limit = 2210 
RTWc_limit = 3306 
CCDLc_limit = 10672 
rwq = 0 
CCDLc_limit_alone = 10401 
WTRc_limit_alone = 2045 
RTWc_limit_alone = 3200 

Commands details: 
total_CMD = 188281 
n_nop = 60445 
Read = 886 
Write = 0 
L2_Alloc = 0 
L2_WB = 125012 
n_act = 6030 
n_pre = 6014 
n_ref = 0 
n_req = 55889 
total_req = 125898 

Dual Bus Interface Util: 
issued_total_row = 12044 
issued_total_col = 125898 
Row_Bus_Util =  0.063968 
CoL_Bus_Util = 0.668671 
Either_Row_CoL_Bus_Util = 0.678964 
Issued_on_Two_Bus_Simul_Util = 0.053675 
issued_two_Eff = 0.079054 
queue_avg = 27.371115 


dram_util_bins: 0 0 0 0 0 0 0 0 0 0
dram_eff_bins: 0 0 0 0 0 0 0 0 0 0
mrqq: max=64 avg=27.3711
Memory Partition 30: 
Cache L2_bank_060:

Cache L2_bank_061:

In Dram Latency Queue (total = 0): 
DRAM[30]: 16 bks, busW=16 BL=2 CL=12, tRRD=3 tCCD=1, tRCD=12 tRAS=28 tRP=12 tRC=40
n_cmd=188281 n_nop=60465 n_act=5972 n_pre=5956 n_ref_event=0 n_req=55891 n_rd=898 n_rd_L2_A=0 n_write=0 n_wr_bk=125008 bw_util=0.6687
n_activity=149085 dram_eff=0.8445
bk0: 57a 131014i bk1: 42a 131140i bk2: 51a 135422i bk3: 71a 133455i bk4: 67a 124975i bk5: 88a 128897i bk6: 81a 125924i bk7: 66a 122469i bk8: 63a 126938i bk9: 44a 129785i bk10: 37a 132017i bk11: 39a 131724i bk12: 43a 131573i bk13: 48a 132177i bk14: 54a 133407i bk15: 47a 130722i 

------------------------------------------------------------------------

Row_Buffer_Locality = 0.893149
Row_Buffer_Locality_read = 0.685969
Row_Buffer_Locality_write = 0.896532
Bank_Level_Parallism = 6.839166
Bank_Level_Parallism_Col = 6.246144
Bank_Level_Parallism_Ready = 4.562316
write_to_read_ratio_blp_rw_average = 0.978716
GrpLevelPara = 3.257403 

BW Util details:
bwutil = 0.668713 
total_CMD = 188281 
util_bw = 125906 
Wasted_Col = 14869 
Wasted_Row = 3504 
Idle = 44002 

BW Util Bottlenecks: 
RCDc_limit = 2224 
RCDWRc_limit = 6739 
WTRc_limit = 2077 
RTWc_limit = 3976 
CCDLc_limit = 10442 
rwq = 0 
CCDLc_limit_alone = 10025 
WTRc_limit_alone = 1848 
RTWc_limit_alone = 3788 

Commands details: 
total_CMD = 188281 
n_nop = 60465 
Read = 898 
Write = 0 
L2_Alloc = 0 
L2_WB = 125008 
n_act = 5972 
n_pre = 5956 
n_ref = 0 
n_req = 55891 
total_req = 125906 

Dual Bus Interface Util: 
issued_total_row = 11928 
issued_total_col = 125906 
Row_Bus_Util =  0.063352 
CoL_Bus_Util = 0.668713 
Either_Row_CoL_Bus_Util = 0.678858 
Issued_on_Two_Bus_Simul_Util = 0.053208 
issued_two_Eff = 0.078378 
queue_avg = 27.836851 


dram_util_bins: 0 0 0 0 0 0 0 0 0 0
dram_eff_bins: 0 0 0 0 0 0 0 0 0 0
mrqq: max=64 avg=27.8369
Memory Partition 31: 
Cache L2_bank_062:

Cache L2_bank_063:

In Dram Latency Queue (total = 0): 
DRAM[31]: 16 bks, busW=16 BL=2 CL=12, tRRD=3 tCCD=1, tRCD=12 tRAS=28 tRP=12 tRC=40
n_cmd=188281 n_nop=60548 n_act=6001 n_pre=5985 n_ref_event=0 n_req=55811 n_rd=894 n_rd_L2_A=0 n_write=0 n_wr_bk=124879 bw_util=0.668
n_activity=149336 dram_eff=0.8422
bk0: 62a 131672i bk1: 45a 131785i bk2: 38a 134794i bk3: 56a 134276i bk4: 77a 125753i bk5: 64a 129271i bk6: 66a 125725i bk7: 67a 122088i bk8: 57a 126238i bk9: 45a 129000i bk10: 44a 132593i bk11: 53a 131481i bk12: 45a 130663i bk13: 57a 132393i bk14: 55a 132903i bk15: 63a 130907i 

------------------------------------------------------------------------

Row_Buffer_Locality = 0.892476
Row_Buffer_Locality_read = 0.677852
Row_Buffer_Locality_write = 0.895970
Bank_Level_Parallism = 6.822921
Bank_Level_Parallism_Col = 6.252495
Bank_Level_Parallism_Ready = 4.566314
write_to_read_ratio_blp_rw_average = 0.978831
GrpLevelPara = 3.245409 

BW Util details:
bwutil = 0.668007 
total_CMD = 188281 
util_bw = 125773 
Wasted_Col = 14880 
Wasted_Row = 3972 
Idle = 43656 

BW Util Bottlenecks: 
RCDc_limit = 2214 
RCDWRc_limit = 6977 
WTRc_limit = 2122 
RTWc_limit = 3418 
CCDLc_limit = 10389 
rwq = 0 
CCDLc_limit_alone = 10051 
WTRc_limit_alone = 1934 
RTWc_limit_alone = 3268 

Commands details: 
total_CMD = 188281 
n_nop = 60548 
Read = 894 
Write = 0 
L2_Alloc = 0 
L2_WB = 124879 
n_act = 6001 
n_pre = 5985 
n_ref = 0 
n_req = 55811 
total_req = 125773 

Dual Bus Interface Util: 
issued_total_row = 11986 
issued_total_col = 125773 
Row_Bus_Util =  0.063660 
CoL_Bus_Util = 0.668007 
Either_Row_CoL_Bus_Util = 0.678417 
Issued_on_Two_Bus_Simul_Util = 0.053250 
issued_two_Eff = 0.078492 
queue_avg = 27.550697 


dram_util_bins: 0 0 0 0 0 0 0 0 0 0
dram_eff_bins: 0 0 0 0 0 0 0 0 0 0
mrqq: max=64 avg=27.5507

========= L2 cache stats =========
L2_cache_bank[0]: Access = 68020, Miss = 33812, Miss_rate = 0.497, Pending_hits = 0, Reservation_fails = 0
L2_cache_bank[1]: Access = 67807, Miss = 33807, Miss_rate = 0.499, Pending_hits = 0, Reservation_fails = 0
L2_cache_bank[2]: Access = 67872, Miss = 33853, Miss_rate = 0.499, Pending_hits = 0, Reservation_fails = 0
L2_cache_bank[3]: Access = 67758, Miss = 33807, Miss_rate = 0.499, Pending_hits = 0, Reservation_fails = 0
L2_cache_bank[4]: Access = 67894, Miss = 33823, Miss_rate = 0.498, Pending_hits = 0, Reservation_fails = 0
L2_cache_bank[5]: Access = 67714, Miss = 33810, Miss_rate = 0.499, Pending_hits = 0, Reservation_fails = 0
L2_cache_bank[6]: Access = 67705, Miss = 33749, Miss_rate = 0.498, Pending_hits = 0, Reservation_fails = 0
L2_cache_bank[7]: Access = 67924, Miss = 33864, Miss_rate = 0.499, Pending_hits = 0, Reservation_fails = 0
L2_cache_bank[8]: Access = 67904, Miss = 33788, Miss_rate = 0.498, Pending_hits = 0, Reservation_fails = 0
L2_cache_bank[9]: Access = 67899, Miss = 33827, Miss_rate = 0.498, Pending_hits = 0, Reservation_fails = 0
L2_cache_bank[10]: Access = 67785, Miss = 33823, Miss_rate = 0.499, Pending_hits = 0, Reservation_fails = 0
L2_cache_bank[11]: Access = 67882, Miss = 33827, Miss_rate = 0.498, Pending_hits = 0, Reservation_fails = 0
L2_cache_bank[12]: Access = 67525, Miss = 33830, Miss_rate = 0.501, Pending_hits = 0, Reservation_fails = 0
L2_cache_bank[13]: Access = 67782, Miss = 33790, Miss_rate = 0.499, Pending_hits = 0, Reservation_fails = 0
L2_cache_bank[14]: Access = 67535, Miss = 33829, Miss_rate = 0.501, Pending_hits = 0, Reservation_fails = 0
L2_cache_bank[15]: Access = 67833, Miss = 33803, Miss_rate = 0.498, Pending_hits = 0, Reservation_fails = 0
L2_cache_bank[16]: Access = 67556, Miss = 33844, Miss_rate = 0.501, Pending_hits = 0, Reservation_fails = 0
L2_cache_bank[17]: Access = 67847, Miss = 33793, Miss_rate = 0.498, Pending_hits = 0, Reservation_fails = 0
L2_cache_bank[18]: Access = 67609, Miss = 33843, Miss_rate = 0.501, Pending_hits = 0, Reservation_fails = 0
L2_cache_bank[19]: Access = 67411, Miss = 33828, Miss_rate = 0.502, Pending_hits = 0, Reservation_fails = 0
L2_cache_bank[20]: Access = 67624, Miss = 33875, Miss_rate = 0.501, Pending_hits = 0, Reservation_fails = 0
L2_cache_bank[21]: Access = 67127, Miss = 33799, Miss_rate = 0.504, Pending_hits = 0, Reservation_fails = 0
L2_cache_bank[22]: Access = 67618, Miss = 33818, Miss_rate = 0.500, Pending_hits = 0, Reservation_fails = 0
L2_cache_bank[23]: Access = 67304, Miss = 33806, Miss_rate = 0.502, Pending_hits = 0, Reservation_fails = 0
L2_cache_bank[24]: Access = 67750, Miss = 33822, Miss_rate = 0.499, Pending_hits = 0, Reservation_fails = 0
L2_cache_bank[25]: Access = 67372, Miss = 33839, Miss_rate = 0.502, Pending_hits = 0, Reservation_fails = 0
L2_cache_bank[26]: Access = 67799, Miss = 33818, Miss_rate = 0.499, Pending_hits = 0, Reservation_fails = 0
L2_cache_bank[27]: Access = 67251, Miss = 33844, Miss_rate = 0.503, Pending_hits = 0, Reservation_fails = 0
L2_cache_bank[28]: Access = 67679, Miss = 33842, Miss_rate = 0.500, Pending_hits = 0, Reservation_fails = 0
L2_cache_bank[29]: Access = 67419, Miss = 33773, Miss_rate = 0.501, Pending_hits = 0, Reservation_fails = 0
L2_cache_bank[30]: Access = 67546, Miss = 33765, Miss_rate = 0.500, Pending_hits = 0, Reservation_fails = 0
L2_cache_bank[31]: Access = 67412, Miss = 33790, Miss_rate = 0.501, Pending_hits = 0, Reservation_fails = 0
L2_cache_bank[32]: Access = 67401, Miss = 33669, Miss_rate = 0.500, Pending_hits = 0, Reservation_fails = 0
L2_cache_bank[33]: Access = 67112, Miss = 33793, Miss_rate = 0.504, Pending_hits = 0, Reservation_fails = 0
L2_cache_bank[34]: Access = 67583, Miss = 33669, Miss_rate = 0.498, Pending_hits = 0, Reservation_fails = 0
L2_cache_bank[35]: Access = 66852, Miss = 33836, Miss_rate = 0.506, Pending_hits = 0, Reservation_fails = 0
L2_cache_bank[36]: Access = 67709, Miss = 33685, Miss_rate = 0.497, Pending_hits = 0, Reservation_fails = 0
L2_cache_bank[37]: Access = 66789, Miss = 33818, Miss_rate = 0.506, Pending_hits = 0, Reservation_fails = 0
L2_cache_bank[38]: Access = 67762, Miss = 33703, Miss_rate = 0.497, Pending_hits = 0, Reservation_fails = 0
L2_cache_bank[39]: Access = 66935, Miss = 33788, Miss_rate = 0.505, Pending_hits = 0, Reservation_fails = 0
L2_cache_bank[40]: Access = 67708, Miss = 33745, Miss_rate = 0.498, Pending_hits = 0, Reservation_fails = 0
L2_cache_bank[41]: Access = 67073, Miss = 33830, Miss_rate = 0.504, Pending_hits = 0, Reservation_fails = 0
L2_cache_bank[42]: Access = 67795, Miss = 33780, Miss_rate = 0.498, Pending_hits = 0, Reservation_fails = 0
L2_cache_bank[43]: Access = 66334, Miss = 33797, Miss_rate = 0.509, Pending_hits = 0, Reservation_fails = 0
L2_cache_bank[44]: Access = 67843, Miss = 33760, Miss_rate = 0.498, Pending_hits = 0, Reservation_fails = 0
L2_cache_bank[45]: Access = 66136, Miss = 33772, Miss_rate = 0.511, Pending_hits = 0, Reservation_fails = 0
L2_cache_bank[46]: Access = 67842, Miss = 33759, Miss_rate = 0.498, Pending_hits = 0, Reservation_fails = 0
L2_cache_bank[47]: Access = 66115, Miss = 33810, Miss_rate = 0.511, Pending_hits = 0, Reservation_fails = 0
L2_cache_bank[48]: Access = 67856, Miss = 33774, Miss_rate = 0.498, Pending_hits = 0, Reservation_fails = 0
L2_cache_bank[49]: Access = 66090, Miss = 33809, Miss_rate = 0.512, Pending_hits = 0, Reservation_fails = 0
L2_cache_bank[50]: Access = 67892, Miss = 33800, Miss_rate = 0.498, Pending_hits = 0, Reservation_fails = 0
L2_cache_bank[51]: Access = 66140, Miss = 33788, Miss_rate = 0.511, Pending_hits = 0, Reservation_fails = 0
L2_cache_bank[52]: Access = 67977, Miss = 33768, Miss_rate = 0.497, Pending_hits = 0, Reservation_fails = 0
L2_cache_bank[53]: Access = 66098, Miss = 33765, Miss_rate = 0.511, Pending_hits = 0, Reservation_fails = 0
L2_cache_bank[54]: Access = 67982, Miss = 33819, Miss_rate = 0.497, Pending_hits = 0, Reservation_fails = 0
L2_cache_bank[55]: Access = 66240, Miss = 33816, Miss_rate = 0.511, Pending_hits = 0, Reservation_fails = 0
L2_cache_bank[56]: Access = 67900, Miss = 33870, Miss_rate = 0.499, Pending_hits = 0, Reservation_fails = 0
L2_cache_bank[57]: Access = 66311, Miss = 33774, Miss_rate = 0.509, Pending_hits = 0, Reservation_fails = 0
L2_cache_bank[58]: Access = 67983, Miss = 33800, Miss_rate = 0.497, Pending_hits = 0, Reservation_fails = 0
L2_cache_bank[59]: Access = 66363, Miss = 33790, Miss_rate = 0.509, Pending_hits = 0, Reservation_fails = 0
L2_cache_bank[60]: Access = 67746, Miss = 33797, Miss_rate = 0.499, Pending_hits = 0, Reservation_fails = 0
L2_cache_bank[61]: Access = 66227, Miss = 33783, Miss_rate = 0.510, Pending_hits = 0, Reservation_fails = 0
L2_cache_bank[62]: Access = 67661, Miss = 33775, Miss_rate = 0.499, Pending_hits = 0, Reservation_fails = 0
L2_cache_bank[63]: Access = 66356, Miss = 33832, Miss_rate = 0.510, Pending_hits = 0, Reservation_fails = 0
L2_total_cache_accesses = 4312974
L2_total_cache_misses = 2163115
L2_total_cache_miss_rate = 0.5015
L2_total_cache_pending_hits = 0
L2_total_cache_reservation_fails = 0
L2_total_cache_breakdown:
	L2_cache_stats_breakdown[GLOBAL_ACC_R][HIT] = 432410
	L2_cache_stats_breakdown[GLOBAL_ACC_R][HIT_RESERVED] = 0
	L2_cache_stats_breakdown[GLOBAL_ACC_R][MISS] = 7538
	L2_cache_stats_breakdown[GLOBAL_ACC_R][RESERVATION_FAIL] = 0
	L2_cache_stats_breakdown[GLOBAL_ACC_R][SECTOR_MISS] = 21126
	L2_cache_stats_breakdown[LOCAL_ACC_R][HIT] = 0
	L2_cache_stats_breakdown[LOCAL_ACC_R][HIT_RESERVED] = 0
	L2_cache_stats_breakdown[LOCAL_ACC_R][MISS] = 0
	L2_cache_stats_breakdown[LOCAL_ACC_R][RESERVATION_FAIL] = 0
	L2_cache_stats_breakdown[LOCAL_ACC_R][SECTOR_MISS] = 0
	L2_cache_stats_breakdown[CONST_ACC_R][HIT] = 0
	L2_cache_stats_breakdown[CONST_ACC_R][HIT_RESERVED] = 0
	L2_cache_stats_breakdown[CONST_ACC_R][MISS] = 0
	L2_cache_stats_breakdown[CONST_ACC_R][RESERVATION_FAIL] = 0
	L2_cache_stats_breakdown[CONST_ACC_R][SECTOR_MISS] = 0
	L2_cache_stats_breakdown[TEXTURE_ACC_R][HIT] = 61388
	L2_cache_stats_breakdown[TEXTURE_ACC_R][HIT_RESERVED] = 0
	L2_cache_stats_breakdown[TEXTURE_ACC_R][MISS] = 0
	L2_cache_stats_breakdown[TEXTURE_ACC_R][RESERVATION_FAIL] = 0
	L2_cache_stats_breakdown[TEXTURE_ACC_R][SECTOR_MISS] = 0
	L2_cache_stats_breakdown[GLOBAL_ACC_W][HIT] = 1656061
	L2_cache_stats_breakdown[GLOBAL_ACC_W][HIT_RESERVED] = 0
	L2_cache_stats_breakdown[GLOBAL_ACC_W][MISS] = 133412
	L2_cache_stats_breakdown[GLOBAL_ACC_W][RESERVATION_FAIL] = 0
	L2_cache_stats_breakdown[GLOBAL_ACC_W][SECTOR_MISS] = 2001039
	L2_cache_stats_breakdown[LOCAL_ACC_W][HIT] = 0
	L2_cache_stats_breakdown[LOCAL_ACC_W][HIT_RESERVED] = 0
	L2_cache_stats_breakdown[LOCAL_ACC_W][MISS] = 0
	L2_cache_stats_breakdown[LOCAL_ACC_W][RESERVATION_FAIL] = 0
	L2_cache_stats_breakdown[LOCAL_ACC_W][SECTOR_MISS] = 0
	L2_cache_stats_breakdown[L1_WRBK_ACC][HIT] = 0
	L2_cache_stats_breakdown[L1_WRBK_ACC][HIT_RESERVED] = 0
	L2_cache_stats_breakdown[L1_WRBK_ACC][MISS] = 0
	L2_cache_stats_breakdown[L1_WRBK_ACC][RESERVATION_FAIL] = 0
	L2_cache_stats_breakdown[L1_WRBK_ACC][SECTOR_MISS] = 0
	L2_cache_stats_breakdown[L2_WRBK_ACC][HIT] = 0
	L2_cache_stats_breakdown[L2_WRBK_ACC][HIT_RESERVED] = 0
	L2_cache_stats_breakdown[L2_WRBK_ACC][MISS] = 0
	L2_cache_stats_breakdown[L2_WRBK_ACC][RESERVATION_FAIL] = 0
	L2_cache_stats_breakdown[L2_WRBK_ACC][SECTOR_MISS] = 0
	L2_cache_stats_breakdown[INST_ACC_R][HIT] = 0
	L2_cache_stats_breakdown[INST_ACC_R][HIT_RESERVED] = 0
	L2_cache_stats_breakdown[INST_ACC_R][MISS] = 0
	L2_cache_stats_breakdown[INST_ACC_R][RESERVATION_FAIL] = 0
	L2_cache_stats_breakdown[INST_ACC_R][SECTOR_MISS] = 0
	L2_cache_stats_breakdown[L1_WR_ALLOC_R][HIT] = 0
	L2_cache_stats_breakdown[L1_WR_ALLOC_R][HIT_RESERVED] = 0
	L2_cache_stats_breakdown[L1_WR_ALLOC_R][MISS] = 0
	L2_cache_stats_breakdown[L1_WR_ALLOC_R][RESERVATION_FAIL] = 0
	L2_cache_stats_breakdown[L1_WR_ALLOC_R][SECTOR_MISS] = 0
	L2_cache_stats_breakdown[L2_WR_ALLOC_R][HIT] = 0
	L2_cache_stats_breakdown[L2_WR_ALLOC_R][HIT_RESERVED] = 0
	L2_cache_stats_breakdown[L2_WR_ALLOC_R][MISS] = 0
	L2_cache_stats_breakdown[L2_WR_ALLOC_R][RESERVATION_FAIL] = 0
	L2_cache_stats_breakdown[L2_WR_ALLOC_R][SECTOR_MISS] = 0
	L2_cache_stats_breakdown[GLOBAL_ACC_R][TOTAL_ACCESS] = 461074
	L2_cache_stats_breakdown[TEXTURE_ACC_R][TOTAL_ACCESS] = 61388
	L2_cache_stats_breakdown[GLOBAL_ACC_W][TOTAL_ACCESS] = 3790512
L2_total_cache_reservation_fail_breakdown:
L2_cache_data_port_util = 0.382
L2_cache_fill_port_util = 0.002

icnt_total_pkts_mem_to_simt=4312974
icnt_total_pkts_simt_to_mem=4266933
LD_mem_lat_dist  0 0 0 0 0 0 0 0 0 0 0 0 0 0 0 0 0 0 0 0 0 0 0 0 0 0 0
ST_mem_lat_dist  0 0 0 0 0 0 0 0 0 0 0 0 0 0 0 0 0 0 0 0 0 0 0 0 0 0 0
----------------------------Interconnect-DETAILS--------------------------------
Req_Network_injected_packets_num = 4266933
Req_Network_cycles = 250746
Req_Network_injected_packets_per_cycle =      17.0170 
Req_Network_conflicts_per_cycle =       7.5227
Req_Network_conflicts_per_cycle_util =       8.3080
Req_Bank_Level_Parallism =      18.7933
Req_Network_in_buffer_full_per_cycle =       0.2262
Req_Network_in_buffer_avg_util =      11.3952
Req_Network_out_buffer_full_per_cycle =       0.0572
Req_Network_out_buffer_avg_util =      12.1755

Reply_Network_injected_packets_num = 4312974
Reply_Network_cycles = 250746
Reply_Network_injected_packets_per_cycle =       17.2006
Reply_Network_conflicts_per_cycle =       15.2634
Reply_Network_conflicts_per_cycle_util =      16.7359
Reply_Bank_Level_Parallism =      18.8601
Reply_Network_in_buffer_full_per_cycle =       0.0036
Reply_Network_in_buffer_avg_util =       4.8099
Reply_Network_out_buffer_full_per_cycle =       0.0000
Reply_Network_out_buffer_avg_util =       0.2150
----------------------------END-of-Interconnect-DETAILS-------------------------


gpgpu_simulation_time = 0 days, 0 hrs, 31 min, 51 sec (1911 sec)
gpgpu_simulation_rate = 130629 (inst/sec)
gpgpu_simulation_rate = 131 (cycle/sec)
gpgpu_silicon_slowdown = 8641221x
GPGPU-Sim: synchronize waiting for inactive GPU simulation
GPGPU-Sim API: Stream Manager State
GPGPU-Sim: detected inactive GPU simulation thread
GPGPU-Sim: *** exit detected ***
