

        *** GPGPU-Sim Simulator Version 4.0.0  [build gpgpu-sim_git-commit-ffe0a1a00e984ecce9bf36e17ab94c4de0de8108_modified_0.0] ***


GPGPU-Sim PTX: simulation mode 0 (can change with PTX_SIM_MODE_FUNC environment variable:
               1=functional simulation only, 0=detailed performance simulator)
GPGPU-Sim PTX: overriding embedded ptx with ptx file (PTX_SIM_USE_PTX_FILE is set)
GPGPU-Sim: Configuration options:

-save_embedded_ptx                      0 # saves ptx files embedded in binary as <n>.ptx
-keep                                   0 # keep intermediate files created by GPGPU-Sim when interfacing with external programs
-gpgpu_ptx_save_converted_ptxplus                    0 # Saved converted ptxplus to a file
-gpgpu_occupancy_sm_number                   70 # The SM number to pass to ptxas when getting register usage for computing GPU occupancy. This parameter is required in the config.
-ptx_opcode_latency_int      4,13,4,5,145,21 # Opcode latencies for integers <ADD,MAX,MUL,MAD,DIV,SHFL>Default 1,1,19,25,145,32
-ptx_opcode_latency_fp          4,13,4,5,39 # Opcode latencies for single precision floating points <ADD,MAX,MUL,MAD,DIV>Default 1,1,1,1,30
-ptx_opcode_latency_dp         8,19,8,8,330 # Opcode latencies for double precision floating points <ADD,MAX,MUL,MAD,DIV>Default 8,8,8,8,335
-ptx_opcode_latency_sfu                  100 # Opcode latencies for SFU instructionsDefault 8
-ptx_opcode_latency_tesnor                   64 # Opcode latencies for Tensor instructionsDefault 64
-ptx_opcode_initiation_int          2,2,2,2,8,4 # Opcode initiation intervals for integers <ADD,MAX,MUL,MAD,DIV,SHFL>Default 1,1,4,4,32,4
-ptx_opcode_initiation_fp            2,2,2,2,4 # Opcode initiation intervals for single precision floating points <ADD,MAX,MUL,MAD,DIV>Default 1,1,1,1,5
-ptx_opcode_initiation_dp          4,4,4,4,130 # Opcode initiation intervals for double precision floating points <ADD,MAX,MUL,MAD,DIV>Default 8,8,8,8,130
-ptx_opcode_initiation_sfu                    8 # Opcode initiation intervals for sfu instructionsDefault 8
-ptx_opcode_initiation_tensor                   64 # Opcode initiation intervals for tensor instructionsDefault 64
-cdp_latency         7200,8000,100,12000,1600 # CDP API latency <cudaStreamCreateWithFlags, cudaGetParameterBufferV2_init_perWarp, cudaGetParameterBufferV2_perKernel, cudaLaunchDeviceV2_init_perWarp, cudaLaunchDevicV2_perKernel>Default 7200,8000,100,12000,1600
-network_mode                           2 # Interconnection network mode
-inter_config_file                   mesh # Interconnection network config file
-icnt_in_buffer_limit                  512 # in_buffer_limit
-icnt_out_buffer_limit                  512 # out_buffer_limit
-icnt_subnets                           2 # subnets
-icnt_arbiter_algo                      1 # arbiter_algo
-icnt_verbose                           0 # inct_verbose
-icnt_grant_cycles                      1 # grant_cycles
-gpgpu_ptx_use_cuobjdump                    1 # Use cuobjdump to extract ptx and sass from binaries
-gpgpu_experimental_lib_support                    0 # Try to extract code from cuda libraries [Broken because of unknown cudaGetExportTable]
-checkpoint_option                      0 #  checkpointing flag (0 = no checkpoint)
-checkpoint_kernel                      1 #  checkpointing during execution of which kernel (1- 1st kernel)
-checkpoint_CTA                         0 #  checkpointing after # of CTA (< less than total CTA)
-resume_option                          0 #  resume flag (0 = no resume)
-resume_kernel                          0 #  Resume from which kernel (1= 1st kernel)
-resume_CTA                             0 #  resume from which CTA 
-checkpoint_CTA_t                       0 #  resume from which CTA 
-checkpoint_insn_Y                      0 #  resume from which CTA 
-gpgpu_ptx_convert_to_ptxplus                    0 # Convert SASS (native ISA) to ptxplus and run ptxplus
-gpgpu_ptx_force_max_capability                   70 # Force maximum compute capability
-gpgpu_ptx_inst_debug_to_file                    0 # Dump executed instructions' debug information to file
-gpgpu_ptx_inst_debug_file       inst_debug.txt # Executed instructions' debug output file
-gpgpu_ptx_inst_debug_thread_uid                    1 # Thread UID for executed instructions' debug output
-gpgpu_n_mem_for_l2wb_pcommit                   32 # number of memory modules (e.g. memory controllers) in gpu
-gpgpu_n_sub_partition_per_mchannel_for_l2wb_pcommit                    2 # number of memory subpartition in each memory module
-gpgpu_dl2_bsize_for_l2wb_pcommit                  128 # default 128 bytes
-gpgpu_simd_model                       1 # 1 = post-dominator
-gpgpu_shader_core_pipeline              2048:32 # shader core pipeline config, i.e., {<nthread>:<warpsize>}
-gpgpu_tex_cache:l1  N:4:128:256,L:R:m:N:L,T:512:8,128:2 # per-shader L1 texture cache  (READ-ONLY) config  {<nsets>:<bsize>:<assoc>,<rep>:<wr>:<alloc>:<wr_alloc>,<mshr>:<N>:<merge>,<mq>:<rf>}
-gpgpu_const_cache:l1 N:128:64:8,L:R:f:N:L,S:2:64,4 # per-shader L1 constant memory cache  (READ-ONLY) config  {<nsets>:<bsize>:<assoc>,<rep>:<wr>:<alloc>:<wr_alloc>,<mshr>:<N>:<merge>,<mq>} 
-gpgpu_cache:il1     N:64:128:16,L:R:f:N:L,S:2:48,4 # shader L1 instruction cache config  {<nsets>:<bsize>:<assoc>,<rep>:<wr>:<alloc>:<wr_alloc>,<mshr>:<N>:<merge>,<mq>} 
-gpgpu_cache:dl1     S:1:128:256,L:L:s:N:L,A:256:8,16:0,32 # per-shader L1 data cache config  {<nsets>:<bsize>:<assoc>,<rep>:<wr>:<alloc>:<wr_alloc>,<mshr>:<N>:<merge>,<mq> | none}
-gpgpu_l1_banks                         4 # The number of L1 cache banks
-gpgpu_l1_banks_byte_interleaving                   32 # l1 banks byte interleaving granularity
-gpgpu_l1_banks_hashing_function                    0 # l1 banks hashing function
-gpgpu_l1_latency                      20 # L1 Hit Latency
-gpgpu_smem_latency                    20 # smem Latency
-gpgpu_cache:dl1PrefL1                 none # per-shader L1 data cache config  {<nsets>:<bsize>:<assoc>,<rep>:<wr>:<alloc>:<wr_alloc>,<mshr>:<N>:<merge>,<mq> | none}
-gpgpu_cache:dl1PrefShared                 none # per-shader L1 data cache config  {<nsets>:<bsize>:<assoc>,<rep>:<wr>:<alloc>:<wr_alloc>,<mshr>:<N>:<merge>,<mq> | none}
-gpgpu_gmem_skip_L1D                    0 # global memory access skip L1D cache (implements -Xptxas -dlcm=cg, default=no skip)
-gpgpu_perfect_mem                      0 # enable perfect memory mode (no cache miss)
-n_regfile_gating_group                    4 # group of lanes that should be read/written together)
-gpgpu_clock_gated_reg_file                    0 # enable clock gated reg file for power calculations
-gpgpu_clock_gated_lanes                    0 # enable clock gated lanes for power calculations
-gpgpu_shader_registers                65536 # Number of registers per shader core. Limits number of concurrent CTAs. (default 8192)
-gpgpu_registers_per_block                65536 # Maximum number of registers per CTA. (default 8192)
-gpgpu_ignore_resources_limitation                    0 # gpgpu_ignore_resources_limitation (default 0)
-gpgpu_shader_cta                      32 # Maximum number of concurrent CTAs in shader (default 8)
-gpgpu_num_cta_barriers                   16 # Maximum number of named barriers per CTA (default 16)
-gpgpu_n_clusters                      80 # number of processing clusters
-gpgpu_n_cores_per_cluster                    1 # number of simd cores per cluster
-gpgpu_n_cluster_ejection_buffer_size                   32 # number of packets in ejection buffer
-gpgpu_n_ldst_response_buffer_size                    2 # number of response packets in ld/st unit ejection buffer
-gpgpu_shmem_per_block                65536 # Size of shared memory per thread block or CTA (default 48kB)
-gpgpu_shmem_size                   98304 # Size of shared memory per shader core (default 16kB)
-gpgpu_adaptive_cache_config            536870913 # adaptive_cache_config
-gpgpu_shmem_sizeDefault                98304 # Size of shared memory per shader core (default 16kB)
-gpgpu_shmem_size_PrefL1                16384 # Size of shared memory per shader core (default 16kB)
-gpgpu_shmem_size_PrefShared                16384 # Size of shared memory per shader core (default 16kB)
-gpgpu_shmem_num_banks                   32 # Number of banks in the shared memory in each shader core (default 16)
-gpgpu_shmem_limited_broadcast                    0 # Limit shared memory to do one broadcast per cycle (default on)
-gpgpu_shmem_warp_parts                    1 # Number of portions a warp is divided into for shared memory bank conflict check 
-gpgpu_mem_unit_ports                    1 # The number of memory transactions allowed per core cycle
-gpgpu_shmem_warp_parts                    1 # Number of portions a warp is divided into for shared memory bank conflict check 
-gpgpu_warpdistro_shader                   -1 # Specify which shader core to collect the warp size distribution from
-gpgpu_warp_issue_shader                    0 # Specify which shader core to collect the warp issue distribution from
-gpgpu_local_mem_map                    1 # Mapping from local memory space address to simulated GPU physical address space (default = enabled)
-gpgpu_num_reg_banks                   16 # Number of register banks (default = 8)
-gpgpu_reg_bank_use_warp_id                    0 # Use warp ID in mapping registers to banks (default = off)
-gpgpu_sub_core_model                    1 # Sub Core Volta/Pascal model (default = off)
-gpgpu_enable_specialized_operand_collector                    0 # enable_specialized_operand_collector
-gpgpu_operand_collector_num_units_sp                    4 # number of collector units (default = 4)
-gpgpu_operand_collector_num_units_dp                    0 # number of collector units (default = 0)
-gpgpu_operand_collector_num_units_sfu                    4 # number of collector units (default = 4)
-gpgpu_operand_collector_num_units_int                    0 # number of collector units (default = 0)
-gpgpu_operand_collector_num_units_tensor_core                    4 # number of collector units (default = 4)
-gpgpu_operand_collector_num_units_mem                    2 # number of collector units (default = 2)
-gpgpu_operand_collector_num_units_gen                    8 # number of collector units (default = 0)
-gpgpu_operand_collector_num_in_ports_sp                    1 # number of collector unit in ports (default = 1)
-gpgpu_operand_collector_num_in_ports_dp                    0 # number of collector unit in ports (default = 0)
-gpgpu_operand_collector_num_in_ports_sfu                    1 # number of collector unit in ports (default = 1)
-gpgpu_operand_collector_num_in_ports_int                    0 # number of collector unit in ports (default = 0)
-gpgpu_operand_collector_num_in_ports_tensor_core                    1 # number of collector unit in ports (default = 1)
-gpgpu_operand_collector_num_in_ports_mem                    1 # number of collector unit in ports (default = 1)
-gpgpu_operand_collector_num_in_ports_gen                    8 # number of collector unit in ports (default = 0)
-gpgpu_operand_collector_num_out_ports_sp                    1 # number of collector unit in ports (default = 1)
-gpgpu_operand_collector_num_out_ports_dp                    0 # number of collector unit in ports (default = 0)
-gpgpu_operand_collector_num_out_ports_sfu                    1 # number of collector unit in ports (default = 1)
-gpgpu_operand_collector_num_out_ports_int                    0 # number of collector unit in ports (default = 0)
-gpgpu_operand_collector_num_out_ports_tensor_core                    1 # number of collector unit in ports (default = 1)
-gpgpu_operand_collector_num_out_ports_mem                    1 # number of collector unit in ports (default = 1)
-gpgpu_operand_collector_num_out_ports_gen                    8 # number of collector unit in ports (default = 0)
-gpgpu_coalesce_arch                   60 # Coalescing arch (GT200 = 13, Fermi = 20)
-gpgpu_num_sched_per_core                    4 # Number of warp schedulers per core
-gpgpu_max_insn_issue_per_warp                    1 # Max number of instructions that can be issued per warp in one cycle by scheduler (either 1 or 2)
-gpgpu_dual_issue_diff_exec_units                    1 # should dual issue use two different execution unit resources (Default = 1)
-gpgpu_simt_core_sim_order                    1 # Select the simulation order of cores in a cluster (0=Fix, 1=Round-Robin)
-gpgpu_pipeline_widths 4,4,4,4,4,4,4,4,4,4,8,4,4 # Pipeline widths ID_OC_SP,ID_OC_DP,ID_OC_INT,ID_OC_SFU,ID_OC_MEM,OC_EX_SP,OC_EX_DP,OC_EX_INT,OC_EX_SFU,OC_EX_MEM,EX_WB,ID_OC_TENSOR_CORE,OC_EX_TENSOR_CORE
-gpgpu_tensor_core_avail                    1 # Tensor Core Available (default=0)
-gpgpu_num_sp_units                     4 # Number of SP units (default=1)
-gpgpu_num_dp_units                     4 # Number of DP units (default=0)
-gpgpu_num_int_units                    4 # Number of INT units (default=0)
-gpgpu_num_sfu_units                    4 # Number of SF units (default=1)
-gpgpu_num_tensor_core_units                    4 # Number of tensor_core units (default=1)
-gpgpu_num_mem_units                    1 # Number if ldst units (default=1) WARNING: not hooked up to anything
-gpgpu_scheduler                      gto # Scheduler configuration: < lrr | gto | two_level_active > If two_level_active:<num_active_warps>:<inner_prioritization>:<outer_prioritization>For complete list of prioritization values see shader.h enum scheduler_prioritization_typeDefault: gto
-gpgpu_concurrent_kernel_sm                    0 # Support concurrent kernels on a SM (default = disabled)
-gpgpu_perfect_inst_const_cache                    1 # perfect inst and const cache mode, so all inst and const hits in the cache(default = disabled)
-gpgpu_inst_fetch_throughput                    4 # the number of fetched intruction per warp each cycle
-gpgpu_reg_file_port_throughput                    2 # the number ports of the register file
-specialized_unit_1         0,4,4,4,4,BRA # specialized unit config {<enabled>,<num_units>:<latency>:<initiation>,<ID_OC_SPEC>:<OC_EX_SPEC>,<NAME>}
-specialized_unit_2         0,4,4,4,4,BRA # specialized unit config {<enabled>,<num_units>:<latency>:<initiation>,<ID_OC_SPEC>:<OC_EX_SPEC>,<NAME>}
-specialized_unit_3         0,4,4,4,4,BRA # specialized unit config {<enabled>,<num_units>:<latency>:<initiation>,<ID_OC_SPEC>:<OC_EX_SPEC>,<NAME>}
-specialized_unit_4         0,4,4,4,4,BRA # specialized unit config {<enabled>,<num_units>:<latency>:<initiation>,<ID_OC_SPEC>:<OC_EX_SPEC>,<NAME>}
-specialized_unit_5         0,4,4,4,4,BRA # specialized unit config {<enabled>,<num_units>:<latency>:<initiation>,<ID_OC_SPEC>:<OC_EX_SPEC>,<NAME>}
-specialized_unit_6         0,4,4,4,4,BRA # specialized unit config {<enabled>,<num_units>:<latency>:<initiation>,<ID_OC_SPEC>:<OC_EX_SPEC>,<NAME>}
-specialized_unit_7         0,4,4,4,4,BRA # specialized unit config {<enabled>,<num_units>:<latency>:<initiation>,<ID_OC_SPEC>:<OC_EX_SPEC>,<NAME>}
-specialized_unit_8         0,4,4,4,4,BRA # specialized unit config {<enabled>,<num_units>:<latency>:<initiation>,<ID_OC_SPEC>:<OC_EX_SPEC>,<NAME>}
-gpgpu_perf_sim_memcpy                    1 # Fill the L2 cache on memcpy
-gpgpu_simple_dram_model                    0 # simple_dram_model with fixed latency and BW
-gpgpu_dram_scheduler                    1 # 0 = fifo, 1 = FR-FCFS (defaul)
-gpgpu_dram_partition_queues          64:64:64:64 # i2$:$2d:d2$:$2i
-l2_ideal                               0 # Use a ideal L2 cache that always hit
-gpgpu_cache:dl2     S:32:128:24,L:B:m:L:P,A:192:4,32:0,32 # unified banked L2 data cache config  {<nsets>:<bsize>:<assoc>,<rep>:<wr>:<alloc>:<wr_alloc>,<mshr>:<N>:<merge>,<mq>}
-gpgpu_cache:dl2_texture_only                    0 # L2 cache used for texture only
-gpgpu_n_mem                           32 # number of memory modules (e.g. memory controllers) in gpu
-gpgpu_n_sub_partition_per_mchannel                    2 # number of memory subpartition in each memory module
-gpgpu_n_mem_per_ctrlr                    1 # number of memory chips per memory controller
-gpgpu_memlatency_stat                   14 # track and display latency statistics 0x2 enables MC, 0x4 enables queue logs
-gpgpu_frfcfs_dram_sched_queue_size                   64 # 0 = unlimited (default); # entries per chip
-gpgpu_dram_return_queue_size                  192 # 0 = unlimited (default); # entries per chip
-gpgpu_dram_buswidth                   16 # default = 4 bytes (8 bytes per cycle at DDR)
-gpgpu_dram_burst_length                    2 # Burst length of each DRAM request (default = 4 data bus cycle)
-dram_data_command_freq_ratio                    2 # Frequency ratio between DRAM data bus and command bus (default = 2 times, i.e. DDR)
-gpgpu_dram_timing_opt nbk=16:CCD=1:RRD=3:RCD=12:RAS=28:RP=12:RC=40: CL=12:WL=2:CDLR=3:WR=10:nbkgrp=4:CCDL=2:RTPL=3 # DRAM timing parameters = {nbk:tCCD:tRRD:tRCD:tRAS:tRP:tRC:CL:WL:tCDLR:tWR:nbkgrp:tCCDL:tRTPL}
-gpgpu_l2_rop_latency                  160 # ROP queue latency (default 85)
-dram_latency                         200 # DRAM latency (default 30)
-dram_write_latency                   600 # DRAM write latency (default 100)
-dram_dual_bus_interface                    1 # dual_bus_interface (default = 0) 
-dram_bnk_indexing_policy                    0 # dram_bnk_indexing_policy (0 = normal indexing, 1 = Xoring with the higher bits) (Default = 0)
-dram_bnkgrp_indexing_policy                    1 # dram_bnkgrp_indexing_policy (0 = take higher bits, 1 = take lower bits) (Default = 0)
-dram_seperate_write_queue_enable                    0 # Seperate_Write_Queue_Enable
-dram_write_queue_size             32:28:16 # Write_Queue_Size
-dram_elimnate_rw_turnaround                    0 # elimnate_rw_turnaround i.e set tWTR and tRTW = 0
-icnt_flit_size                        40 # icnt_flit_size
-gpgpu_mem_addr_mapping dramid@8;00000000.00000000.00000000.00000000.0000RRRR.RRRRRRRR.RBBBCCCB.CCCSSSSS # mapping memory address to dram model {dramid@<start bit>;<memory address map>}
-gpgpu_mem_addr_test                    0 # run sweep test to check address mapping for aliased address
-gpgpu_mem_address_mask                    1 # 0 = old addressing mask, 1 = new addressing mask, 2 = new add. mask + flipped bank sel and chip sel bits
-gpgpu_memory_partition_indexing                    0 # 0 = no indexing, 1 = bitwise xoring, 2 = IPoly, 3 = custom indexing
-gpuwattch_xml_file         gpuwattch.xml # GPUWattch XML file
-power_simulation_enabled                    0 # Turn on power simulator (1=On, 0=Off)
-power_per_cycle_dump                    0 # Dump detailed power output each cycle
-power_trace_enabled                    0 # produce a file for the power trace (1=On, 0=Off)
-power_trace_zlevel                     6 # Compression level of the power trace output log (0=no comp, 9=highest)
-steady_power_levels_enabled                    0 # produce a file for the steady power levels (1=On, 0=Off)
-steady_state_definition                  8:4 # allowed deviation:number of samples
-gpgpu_max_cycle                        0 # terminates gpu simulation early (0 = no limit)
-gpgpu_max_insn                         0 # terminates gpu simulation early (0 = no limit)
-gpgpu_max_cta                          0 # terminates gpu simulation early (0 = no limit)
-gpgpu_max_completed_cta                    0 # terminates gpu simulation early (0 = no limit)
-gpgpu_runtime_stat                   500 # display runtime statistics such as dram utilization {<freq>:<flag>}
-liveness_message_freq                    1 # Minimum number of seconds between simulation liveness messages (0 = always print)
-gpgpu_compute_capability_major                    7 # Major compute capability version number
-gpgpu_compute_capability_minor                    0 # Minor compute capability version number
-gpgpu_flush_l1_cache                    1 # Flush L1 cache at the end of each kernel call
-gpgpu_flush_l2_cache                    0 # Flush L2 cache at the end of each kernel call
-gpgpu_deadlock_detect                    1 # Stop the simulation at deadlock (1=on (default), 0=off)
-gpgpu_ptx_instruction_classification                    0 # if enabled will classify ptx instruction types per kernel (Max 255 kernels now)
-gpgpu_ptx_sim_mode                     0 # Select between Performance (default) or Functional simulation (1)
-gpgpu_clock_domains 1132.0:1132.0:1132.0:850.0 # Clock Domain Frequencies in MhZ {<Core Clock>:<ICNT Clock>:<L2 Clock>:<DRAM Clock>}
-gpgpu_max_concurrent_kernel                    8 # maximum kernels that can run concurrently on GPU
-gpgpu_cflog_interval                    0 # Interval between each snapshot in control flow logger
-visualizer_enabled               3acf4816f28a61137a29f806736c3982  /home/pli11/Videos/parboil_benchmark/parboil/benchmarks/sad/build/nvm_default/sad
Extracting PTX file and ptxas options    1: sad.1.sm_70.ptx -arch=sm_70
Extracting PTX file and ptxas options    2: sad.2.sm_70.ptx -arch=sm_70
Extracting PTX file and ptxas options    3: sad.3.sm_70.ptx -arch=sm_70
      0 # Turn on visualizer output (1=On, 0=Off)
-visualizer_outputfile                 NULL # Specifies the output log file for visualizer
-visualizer_zlevel                      6 # Compression level of the visualizer output log (0=no comp, 9=highest)
-gpgpu_stack_size_limit                 1024 # GPU thread stack size
-gpgpu_heap_size_limit              8388608 # GPU malloc heap size 
-gpgpu_runtime_sync_depth_limit                    2 # GPU device runtime synchronize depth
-gpgpu_runtime_pending_launch_count_limit                 2048 # GPU device runtime pending launch count
-trace_enabled                          0 # Turn on traces
-trace_components                    none # comma seperated list of traces to enable. Complete list found in trace_streams.tup. Default none
-trace_sampling_core                    0 # The core which is printed using CORE_DPRINTF. Default 0
-trace_sampling_memory_partition                   -1 # The memory partition which is printed using MEMPART_DPRINTF. Default -1 (i.e. all)
-enable_ptx_file_line_stats                    1 # Turn on PTX source line statistic profiling. (1 = On)
-ptx_line_stats_filename gpgpu_inst_stats.txt # Output file for PTX source line statistics.
-gpgpu_kernel_launch_latency                 5000 # Kernel launch latency in cycles. Default: 0
-gpgpu_cdp_enabled                      0 # Turn on CDP
-gpgpu_TB_launch_latency                    0 # thread block launch latency in cycles. Default: 0
DRAM Timing Options:
nbk                                    16 # number of banks
CCD                                     1 # column to column delay
RRD                                     3 # minimal delay between activation of rows in different banks
RCD                                    12 # row to column delay
RAS                                    28 # time needed to activate row
RP                                     12 # time needed to precharge (deactivate) row
RC                                     40 # row cycle time
CDLR                                    3 # switching from write to read (changes tWTR)
WR                                     10 # last data-in to row precharge
CL                                     12 # CAS latency
WL                                      2 # Write latency
nbkgrp                                  4 # number of bank groups
CCDL                                    2 # column to column delay between accesses to different bank groups
RTPL                                    3 # read to precharge delay between accesses to different bank groups
Total number of memory sub partition = 64
addr_dec_mask[CHIP]  = 0000000000001f00 	high:13 low:8
addr_dec_mask[BK]    = 00000000000e2000 	high:20 low:13
addr_dec_mask[ROW]   = 00000001fff00000 	high:33 low:20
addr_dec_mask[COL]   = 000000000001c0ff 	high:17 low:0
addr_dec_mask[BURST] = 000000000000001f 	high:5 low:0
sub_partition_id_mask = 0000000000002000
GPGPU-Sim uArch: clock freqs: 1132000000.000000:1132000000.000000:1132000000.000000:850000000.000000
GPGPU-Sim uArch: clock periods: 0.00000000088339222615:0.00000000088339222615:0.00000000088339222615:0.00000000117647058824
*** Initializing Memory Statistics ***
GPGPU-Sim uArch: performance model initialization complete.
self exe links to: /home/pli11/Videos/parboil_benchmark/parboil/benchmarks/sad/build/nvm_default/sad
self exe links to: /home/pli11/Videos/parboil_benchmark/parboil/benchmarks/sad/build/nvm_default/sad
10.1
GPGPU-Sim PTX: __cudaRegisterFatBinary, fat_cubin_handle = 1, filename=default
self exe links to: /home/pli11/Videos/parboil_benchmark/parboil/benchmarks/sad/build/nvm_default/sad
Running md5sum using "md5sum /home/pli11/Videos/parboil_benchmark/parboil/benchmarks/sad/build/nvm_default/sad "
self exe links to: /home/pli11/Videos/parboil_benchmark/parboil/benchmarks/sad/build/nvm_default/sad
Extracting specific PTX file named sad.1.sm_70.ptx 
Extracting specific PTX file named sad.2.sm_70.ptx 
Extracting specific PTX file named sad.3.sm_70.ptx 
GPGPU-Sim PTX: __cudaRegisterFunction _Z16mb_sad_calc_nvmdPtS_ii : hostFun 0x0x403136, fat_cubin_handle = 1
GPGPU-Sim PTX: Parsing sad.1.sm_70.ptx
GPGPU-Sim PTX: allocating global region for "ref" from 0x100 to 0x104 (global memory space)
GPGPU-Sim PTX: allocating global region for "NVM_log" from 0x180 to 0x2000180 (global memory space)
GPGPU-Sim PTX: allocating global region for "NVM_flag" from 0x2000180 to 0x2400180 (global memory space)
GPGPU-Sim PTX: instruction assembly for function '_Z16mb_sad_calc_nvmoPtS_ii'...   done.
GPGPU-Sim PTX: instruction assembly for function '_Z16mb_sad_calc_nvmuPtS_ii'...   done.
GPGPU-Sim PTX: instruction assembly for function '_Z16mb_sad_calc_nvmqPtS_ii'...   done.
GPGPU-Sim PTX: instruction assembly for function '_Z16mb_sad_calc_nvmwPtS_ii'...   done.
GPGPU-Sim PTX: instruction assembly for function '_Z16mb_sad_calc_nvm1PtS_ii'...   done.
GPGPU-Sim PTX: instruction assembly for function '_Z16mb_sad_calc_nvm2PtS_ii'...   done.
GPGPU-Sim PTX: instruction assembly for function '_Z16mb_sad_calc_nvmjPtS_ii'...   done.
GPGPU-Sim PTX: instruction assembly for function '_Z16mb_sad_calc_nvmlPtS_ii'...   done.
GPGPU-Sim PTX: instruction assembly for function '_Z16mb_sad_calc_nvmgPtS_ii'...   done.
GPGPU-Sim PTX: instruction assembly for function '_Z16mb_sad_calc_nvm3PtS_ii'...   done.
GPGPU-Sim PTX: instruction assembly for function '_Z16mb_sad_calc_nvm4PtS_ii'...   done.
GPGPU-Sim PTX: instruction assembly for function '_Z16mb_sad_calc_nvmiPtS_ii'...   done.
GPGPU-Sim PTX: instruction assembly for function '_Z16mb_sad_calc_nvm6PtS_ii'...   done.
GPGPU-Sim PTX: instruction assembly for function '_Z16mb_sad_calc_nvm5PtS_ii'...   done.
GPGPU-Sim PTX: instruction assembly for function '_Z11mb_sad_calcPtS_ii'...   done.
GPGPU-Sim PTX: instruction assembly for function '_Z16mb_sad_calc_nvmbPtS_ii'...   done.
GPGPU-Sim PTX: instruction assembly for function '_Z16mb_sad_calc_nvmdPtS_ii'...   done.
GPGPU-Sim PTX: finished parsing EMBEDDED .ptx file sad.1.sm_70.ptx
GPGPU-Sim PTX: Parsing sad.2.sm_70.ptx
GPGPU-Sim PTX: instruction assembly for function '_Z17larger_sad_calc_8Ptii'...   done.
GPGPU-Sim PTX: instruction assembly for function '_Z22larger_sad_calc_8_nvmoPtii'...   done.
GPGPU-Sim PTX: instruction assembly for function '_Z22larger_sad_calc_8_nvmuPtii'...   done.
GPGPU-Sim PTX: instruction assembly for function '_Z22larger_sad_calc_8_nvmbPtii'...   done.
GPGPU-Sim PTX: instruction assembly for function '_Z18larger_sad_calc_16Ptii'...   done.
GPGPU-Sim PTX: finished parsing EMBEDDED .ptx file sad.2.sm_70.ptx
GPGPU-Sim PTX: Parsing sad.3.sm_70.ptx
GPGPU-Sim PTX: instruction assembly for function '_Z11kernel_l2wbv'...   done.
GPGPU-Sim PTX: instruction assembly for function '_Z15kernel_l2wb_pctv'...   done.
GPGPU-Sim PTX: finished parsing EMBEDDED .ptx file sad.3.sm_70.ptx
GPGPU-Sim PTX: loading globals with explicit initializers... 
GPGPU-Sim PTX: finished loading globals (0 bytes total).
GPGPU-Sim PTX: loading constants with explicit initializers...  done.
GPGPU-Sim PTX: Loading PTXInfo from sad.1.sm_70.ptx
GPGPU-Sim PTX: Kernel '_Z16mb_sad_calc_nvmdPtS_ii' : regs=48, lmem=0, smem=0, cmem=380
GPGPU-Sim PTX: Kernel '_Z16mb_sad_calc_nvmbPtS_ii' : regs=48, lmem=0, smem=0, cmem=380
GPGPU-Sim PTX: Kernel '_Z11mb_sad_calcPtS_ii' : regs=48, lmem=0, smem=0, cmem=380
GPGPU-Sim PTX: Kernel '_Z16mb_sad_calc_nvm5PtS_ii' : regs=64, lmem=0, smem=0, cmem=380
GPGPU-Sim PTX: Kernel '_Z16mb_sad_calc_nvm6PtS_ii' : regs=64, lmem=0, smem=0, cmem=380
GPGPU-Sim PTX: Kernel '_Z16mb_sad_calc_nvmiPtS_ii' : regs=56, lmem=0, smem=0, cmem=380
GPGPU-Sim PTX: Kernel '_Z16mb_sad_calc_nvm4PtS_ii' : regs=56, lmem=0, smem=0, cmem=380
GPGPU-Sim PTX: Kernel '_Z16mb_sad_calc_nvm3PtS_ii' : regs=56, lmem=0, smem=0, cmem=380
GPGPU-Sim PTX: Kernel '_Z16mb_sad_calc_nvmgPtS_ii' : regs=56, lmem=0, smem=0, cmem=380
GPGPU-Sim PTX: Kernel '_Z16mb_sad_calc_nvmlPtS_ii' : regs=48, lmem=0, smem=0, cmem=380
GPGPU-Sim PTX: Kernel '_Z16mb_sad_calc_nvmjPtS_ii' : regs=48, lmem=0, smem=0, cmem=380
GPGPU-Sim PTX: Kernel '_Z16mb_sad_calc_nvm2PtS_ii' : regs=48, lmem=0, smem=0, cmem=380
GPGPU-Sim PTX: Kernel '_Z16mb_sad_calc_nvm1PtS_ii' : regs=48, lmem=0, smem=0, cmem=380
GPGPU-Sim PTX: Kernel '_Z16mb_sad_calc_nvmwPtS_ii' : regs=56, lmem=0, smem=0, cmem=380
GPGPU-Sim PTX: Kernel '_Z16mb_sad_calc_nvmqPtS_ii' : regs=56, lmem=0, smem=0, cmem=380
GPGPU-Sim PTX: Kernel '_Z16mb_sad_calc_nvmuPtS_ii' : regs=56, lmem=0, smem=0, cmem=380
GPGPU-Sim PTX: Kernel '_Z16mb_sad_calc_nvmoPtS_ii' : regs=56, lmem=0, smem=0, cmem=380
GPGPU-Sim PTX: Loading PTXInfo from sad.2.sm_70.ptx
GPGPU-Sim PTX: Kernel '_Z18larger_sad_calc_16Ptii' : regs=32, lmem=0, smem=0, cmem=368
GPGPU-Sim PTX: Kernel '_Z22larger_sad_calc_8_nvmbPtii' : regs=32, lmem=0, smem=0, cmem=368
GPGPU-Sim PTX: Kernel '_Z22larger_sad_calc_8_nvmuPtii' : regs=32, lmem=0, smem=0, cmem=368
GPGPU-Sim PTX: Kernel '_Z22larger_sad_calc_8_nvmoPtii' : regs=32, lmem=0, smem=0, cmem=368
GPGPU-Sim PTX: Kernel '_Z17larger_sad_calc_8Ptii' : regs=32, lmem=0, smem=0, cmem=368
GPGPU-Sim PTX: Loading PTXInfo from sad.3.sm_70.ptx
GPGPU-Sim PTX: Kernel '_Z15kernel_l2wb_pctv' : regs=8, lmem=0, smem=0, cmem=352
GPGPU-Sim PTX: Kernel '_Z11kernel_l2wbv' : regs=8, lmem=0, smem=0, cmem=352
GPGPU-Sim PTX: __cudaRegisterFunction _Z16mb_sad_calc_nvmbPtS_ii : hostFun 0x0x402fc3, fat_cubin_handle = 1
GPGPU-Sim PTX: __cudaRegisterFunction _Z11mb_sad_calcPtS_ii : hostFun 0x0x402e50, fat_cubin_handle = 1
GPGPU-Sim PTX: __cudaRegisterFunction _Z16mb_sad_calc_nvm5PtS_ii : hostFun 0x0x402cdd, fat_cubin_handle = 1
GPGPU-Sim PTX: __cudaRegisterFunction _Z16mb_sad_calc_nvm6PtS_ii : hostFun 0x0x402b6a, fat_cubin_handle = 1
GPGPU-Sim PTX: __cudaRegisterFunction _Z16mb_sad_calc_nvmiPtS_ii : hostFun 0x0x4029f7, fat_cubin_handle = 1
GPGPU-Sim PTX: __cudaRegisterFunction _Z16mb_sad_calc_nvm4PtS_ii : hostFun 0x0x402884, fat_cubin_handle = 1
GPGPU-Sim PTX: __cudaRegisterFunction _Z16mb_sad_calc_nvm3PtS_ii : hostFun 0x0x402711, fat_cubin_handle = 1
GPGPU-Sim PTX: __cudaRegisterFunction _Z16mb_sad_calc_nvmgPtS_ii : hostFun 0x0x40259e, fat_cubin_handle = 1
GPGPU-Sim PTX: __cudaRegisterFunction _Z16mb_sad_calc_nvmlPtS_ii : hostFun 0x0x40242b, fat_cubin_handle = 1
GPGPU-Sim PTX: __cudaRegisterFunction _Z16mb_sad_calc_nvmjPtS_ii : hostFun 0x0x4022b8, fat_cubin_handle = 1
GPGPU-Sim PTX: __cudaRegisterFunction _Z16mb_sad_calc_nvm2PtS_ii : hostFun 0x0x402145, fat_cubin_handle = 1
GPGPU-Sim PTX: __cudaRegisterFunction _Z16mb_sad_calc_nvm1PtS_ii : hostFun 0x0x401fd2, fat_cubin_handle = 1
GPGPU-Sim PTX: __cudaRegisterFunction _Z16mb_sad_calc_nvmwPtS_ii : hostFun 0x0x401e5f, fat_cubin_handle = 1
GPGPU-Sim PTX: __cudaRegisterFunction _Z16mb_sad_calc_nvmqPtS_ii : hostFun 0x0x401cec, fat_cubin_handle = 1
GPGPU-Sim PTX: __cudaRegisterFunction _Z16mb_sad_calc_nvmuPtS_ii : hostFun 0x0x401b79, fat_cubin_handle = 1
GPGPU-Sim PTX: __cudaRegisterFunction _Z16mb_sad_calc_nvmoPtS_ii : hostFun 0x0x401a06, fat_cubin_handle = 1
GPGPU-Sim PTX: in __cudaRegisterTexture:
GPGPU-Sim PTX:   int dim = 2
GPGPU-Sim PTX:   int norm = 0
GPGPU-Sim PTX:   int ext = 0
GPGPU-Sim PTX:   Execution warning: Not finished implementing "void __cudaRegisterTextureInternal(void**, const textureReference*, const void**, const char*, int, int, int, gpgpu_context*)"
GPGPU-Sim PTX: __cudaRegisterVar: hostVar = 0x6132a0; deviceAddress = NVM_log; deviceName = NVM_log
GPGPU-Sim PTX: __cudaRegisterVar: Registering const memory space of 33554432 bytes
GPGPU-Sim PTX registering global NVM_log hostVar to name mapping
GPGPU-Sim PTX: __cudaRegisterVar: hostVar = 0x26132a0; deviceAddress = NVM_flag; deviceName = NVM_flag
GPGPU-Sim PTX: __cudaRegisterVar: Registering const memory space of 4194304 bytes
GPGPU-Sim PTX registering global NVM_flag hostVar to name mapping
self exe links to: /home/pli11/Videos/parboil_benchmark/parboil/benchmarks/sad/build/nvm_default/sad
self exe links to: /home/pli11/Videos/parboil_benchmark/parboil/benchmarks/sad/build/nvm_default/sad
10.1
GPGPU-Sim PTX: __cudaRegisterFatBinary, fat_cubin_handle = 2, filename=default
GPGPU-Sim PTX: __cudaRegisterFunction _Z18larger_sad_calc_16Ptii : hostFun 0x0x403ff1, fat_cubin_handle = 2
GPGPU-Sim PTX: __cudaRegisterFunction _Z22larger_sad_calc_8_nvmbPtii : hostFun 0x0x403e9a, fat_cubin_handle = 2
GPGPU-Sim PTX: __cudaRegisterFunction _Z22larger_sad_calc_8_nvmuPtii : hostFun 0x0x403d43, fat_cubin_handle = 2
GPGPU-Sim PTX: __cudaRegisterFunction _Z22larger_sad_calc_8_nvmoPtii : hostFun 0x0x403bec, fat_cubin_handle = 2
GPGPU-Sim PTX: __cudaRegisterFunction _Z17larger_sad_calc_8Ptii : hostFun 0x0x403a95, fat_cubin_handle = 2
self exe links to: /home/pli11/Videos/parboil_benchmark/parboil/benchmarks/sad/build/nvm_default/sad
self exe links to: /home/pli11/Videos/parboil_benchmark/parboil/benchmarks/sad/build/nvm_default/sad
10.1
GPGPU-Sim PTX: __cudaRegisterFatBinary, fat_cubin_handle = 3, filename=default
GPGPU-Sim PTX: __cudaRegisterFunction _Z15kernel_l2wb_pctv : hostFun 0x0x40676c, fat_cubin_handle = 3
GPGPU-Sim PTX: __cudaRegisterFunction _Z11kernel_l2wbv : hostFun 0x0x406672, fat_cubin_handle = 3
GPGPU-Sim PTX: cudaMallocArray: devPtr32 = -1073691136
GPGPU-Sim PTX: in cudaBindTextureToArray: 0x613220 0x116f75c0
GPGPU-Sim PTX:   devPtr32 = c000c600
GPGPU-Sim PTX:   Name corresponding to textureReference: ref
GPGPU-Sim PTX:   Texture Normalized? = 0
GPGPU-Sim PTX:   texel size = 2
GPGPU-Sim PTX:   texture cache linesize = 128
GPGPU-Sim PTX:   Tx = 16; Ty = 4, Tx_numbits = 4, Ty_numbits = 2
GPGPU-Sim PTX:   Texel size = 2 bytes; texel_size_numbits = 1
GPGPU-Sim PTX:   Binding texture to array starting at devPtr32 = 0xc000c600
GPGPU-Sim PTX:   Texel size = 2 bytes
event update
width * height = 99
GPGPU-Sim: synchronize waiting for inactive GPU simulation
GPGPU-Sim API: Stream Manager State
GPGPU-Sim: detected inactive GPU simulation thread
GPGPU-Sim PTX: Setting up arguments for 8 bytes starting at 0x7ffd5a9193c8..
GPGPU-Sim PTX: Setting up arguments for 8 bytes starting at 0x7ffd5a9193c0..
GPGPU-Sim PTX: Setting up arguments for 4 bytes starting at 0x7ffd5a9193bc..
GPGPU-Sim PTX: Setting up arguments for 4 bytes starting at 0x7ffd5a9193b8..

GPGPU-Sim PTX: cudaLaunch for 0x0x402fc3 (mode=performance simulation) on stream 0
GPGPU-Sim PTX: finding reconvergence points for '_Z16mb_sad_calc_nvmbPtS_ii'...
GPGPU-Sim PTX: Finding dominators for '_Z16mb_sad_calc_nvmbPtS_ii'...
GPGPU-Sim PTX: Finding immediate dominators for '_Z16mb_sad_calc_nvmbPtS_ii'...
GPGPU-Sim PTX: Finding postdominators for '_Z16mb_sad_calc_nvmbPtS_ii'...
GPGPU-Sim PTX: Finding immediate postdominators for '_Z16mb_sad_calc_nvmbPtS_ii'...
GPGPU-Sim PTX: pre-decoding instructions for '_Z16mb_sad_calc_nvmbPtS_ii'...
GPGPU-Sim PTX: reconvergence points for _Z16mb_sad_calc_nvmbPtS_ii...
GPGPU-Sim PTX:  1 (potential) branch divergence @  PC=0x78e0 (sad.1.sm_70.ptx:4760) @%p3 bra BB15_4;
GPGPU-Sim PTX:    immediate post dominator      @  PC=0x7e20 (sad.1.sm_70.ptx:4938) ret;
GPGPU-Sim PTX:  2 (potential) branch divergence @  PC=0x7920 (sad.1.sm_70.ptx:4769) @%p4 bra BB15_4;
GPGPU-Sim PTX:    immediate post dominator      @  PC=0x7e20 (sad.1.sm_70.ptx:4938) ret;
GPGPU-Sim PTX:  3 (potential) branch divergence @  PC=0x7e18 (sad.1.sm_70.ptx:4935) @%p5 bra BB15_3;
GPGPU-Sim PTX:    immediate post dominator      @  PC=0x7e20 (sad.1.sm_70.ptx:4938) ret;
GPGPU-Sim PTX: ... end of reconvergence points for _Z16mb_sad_calc_nvmbPtS_ii
GPGPU-Sim PTX: ... done pre-decoding instructions for '_Z16mb_sad_calc_nvmbPtS_ii'.
GPGPU-Sim PTX: pushing kernel '_Z16mb_sad_calc_nvmbPtS_ii' to stream 0, gridDim= (44,36,1) blockDim = (61,1,1) 
GPGPU-Sim uArch: Shader 0 bind to kernel 1 '_Z16mb_sad_calc_nvmbPtS_ii'
GPGPU-Sim uArch: CTA/core = 21, limited by: regs
GPGPU-Sim: Reconfigure L1 cache to 128KB
GPGPU-Sim uArch: Shader 1 bind to kernel 1 '_Z16mb_sad_calc_nvmbPtS_ii'
GPGPU-Sim uArch: Shader 2 bind to kernel 1 '_Z16mb_sad_calc_nvmbPtS_ii'
GPGPU-Sim uArch: Shader 3 bind to kernel 1 '_Z16mb_sad_calc_nvmbPtS_ii'
GPGPU-Sim uArch: Shader 4 bind to kernel 1 '_Z16mb_sad_calc_nvmbPtS_ii'
GPGPU-Sim uArch: Shader 5 bind to kernel 1 '_Z16mb_sad_calc_nvmbPtS_ii'
GPGPU-Sim uArch: Shader 6 bind to kernel 1 '_Z16mb_sad_calc_nvmbPtS_ii'
GPGPU-Sim uArch: Shader 7 bind to kernel 1 '_Z16mb_sad_calc_nvmbPtS_ii'
GPGPU-Sim uArch: Shader 8 bind to kernel 1 '_Z16mb_sad_calc_nvmbPtS_ii'
GPGPU-Sim uArch: Shader 9 bind to kernel 1 '_Z16mb_sad_calc_nvmbPtS_ii'
GPGPU-Sim uArch: Shader 10 bind to kernel 1 '_Z16mb_sad_calc_nvmbPtS_ii'
GPGPU-Sim uArch: Shader 11 bind to kernel 1 '_Z16mb_sad_calc_nvmbPtS_ii'
GPGPU-Sim uArch: Shader 12 bind to kernel 1 '_Z16mb_sad_calc_nvmbPtS_ii'
GPGPU-Sim uArch: Shader 13 bind to kernel 1 '_Z16mb_sad_calc_nvmbPtS_ii'
GPGPU-Sim uArch: Shader 14 bind to kernel 1 '_Z16mb_sad_calc_nvmbPtS_ii'
GPGPU-Sim uArch: Shader 15 bind to kernel 1 '_Z16mb_sad_calc_nvmbPtS_ii'
GPGPU-Sim uArch: Shader 16 bind to kernel 1 '_Z16mb_sad_calc_nvmbPtS_ii'
GPGPU-Sim uArch: Shader 17 bind to kernel 1 '_Z16mb_sad_calc_nvmbPtS_ii'
GPGPU-Sim uArch: Shader 18 bind to kernel 1 '_Z16mb_sad_calc_nvmbPtS_ii'
GPGPU-Sim uArch: Shader 19 bind to kernel 1 '_Z16mb_sad_calc_nvmbPtS_ii'
GPGPU-Sim uArch: Shader 20 bind to kernel 1 '_Z16mb_sad_calc_nvmbPtS_ii'
GPGPU-Sim uArch: Shader 21 bind to kernel 1 '_Z16mb_sad_calc_nvmbPtS_ii'
GPGPU-Sim uArch: Shader 22 bind to kernel 1 '_Z16mb_sad_calc_nvmbPtS_ii'
GPGPU-Sim uArch: Shader 23 bind to kernel 1 '_Z16mb_sad_calc_nvmbPtS_ii'
GPGPU-Sim uArch: Shader 24 bind to kernel 1 '_Z16mb_sad_calc_nvmbPtS_ii'
GPGPU-Sim uArch: Shader 25 bind to kernel 1 '_Z16mb_sad_calc_nvmbPtS_ii'
GPGPU-Sim uArch: Shader 26 bind to kernel 1 '_Z16mb_sad_calc_nvmbPtS_ii'
GPGPU-Sim uArch: Shader 27 bind to kernel 1 '_Z16mb_sad_calc_nvmbPtS_ii'
GPGPU-Sim uArch: Shader 28 bind to kernel 1 '_Z16mb_sad_calc_nvmbPtS_ii'
GPGPU-Sim uArch: Shader 29 bind to kernel 1 '_Z16mb_sad_calc_nvmbPtS_ii'
GPGPU-Sim uArch: Shader 30 bind to kernel 1 '_Z16mb_sad_calc_nvmbPtS_ii'
GPGPU-Sim uArch: Shader 31 bind to kernel 1 '_Z16mb_sad_calc_nvmbPtS_ii'
GPGPU-Sim uArch: Shader 32 bind to kernel 1 '_Z16mb_sad_calc_nvmbPtS_ii'
GPGPU-Sim uArch: Shader 33 bind to kernel 1 '_Z16mb_sad_calc_nvmbPtS_ii'
GPGPU-Sim uArch: Shader 34 bind to kernel 1 '_Z16mb_sad_calc_nvmbPtS_ii'
GPGPU-Sim uArch: Shader 35 bind to kernel 1 '_Z16mb_sad_calc_nvmbPtS_ii'
GPGPU-Sim uArch: Shader 36 bind to kernel 1 '_Z16mb_sad_calc_nvmbPtS_ii'
GPGPU-Sim uArch: Shader 37 bind to kernel 1 '_Z16mb_sad_calc_nvmbPtS_ii'
GPGPU-Sim uArch: Shader 38 bind to kernel 1 '_Z16mb_sad_calc_nvmbPtS_ii'
GPGPU-Sim uArch: Shader 39 bind to kernel 1 '_Z16mb_sad_calc_nvmbPtS_ii'
GPGPU-Sim uArch: Shader 40 bind to kernel 1 '_Z16mb_sad_calc_nvmbPtS_ii'
GPGPU-Sim uArch: Shader 41 bind to kernel 1 '_Z16mb_sad_calc_nvmbPtS_ii'
GPGPU-Sim uArch: Shader 42 bind to kernel 1 '_Z16mb_sad_calc_nvmbPtS_ii'
GPGPU-Sim uArch: Shader 43 bind to kernel 1 '_Z16mb_sad_calc_nvmbPtS_ii'
GPGPU-Sim uArch: Shader 44 bind to kernel 1 '_Z16mb_sad_calc_nvmbPtS_ii'
GPGPU-Sim uArch: Shader 45 bind to kernel 1 '_Z16mb_sad_calc_nvmbPtS_ii'
GPGPU-Sim uArch: Shader 46 bind to kernel 1 '_Z16mb_sad_calc_nvmbPtS_ii'
GPGPU-Sim uArch: Shader 47 bind to kernel 1 '_Z16mb_sad_calc_nvmbPtS_ii'
GPGPU-Sim uArch: Shader 48 bind to kernel 1 '_Z16mb_sad_calc_nvmbPtS_ii'
GPGPU-Sim uArch: Shader 49 bind to kernel 1 '_Z16mb_sad_calc_nvmbPtS_ii'
GPGPU-Sim uArch: Shader 50 bind to kernel 1 '_Z16mb_sad_calc_nvmbPtS_ii'
GPGPU-Sim uArch: Shader 51 bind to kernel 1 '_Z16mb_sad_calc_nvmbPtS_ii'
GPGPU-Sim uArch: Shader 52 bind to kernel 1 '_Z16mb_sad_calc_nvmbPtS_ii'
GPGPU-Sim uArch: Shader 53 bind to kernel 1 '_Z16mb_sad_calc_nvmbPtS_ii'
GPGPU-Sim uArch: Shader 54 bind to kernel 1 '_Z16mb_sad_calc_nvmbPtS_ii'
GPGPU-Sim uArch: Shader 55 bind to kernel 1 '_Z16mb_sad_calc_nvmbPtS_ii'
GPGPU-Sim uArch: Shader 56 bind to kernel 1 '_Z16mb_sad_calc_nvmbPtS_ii'
GPGPU-Sim uArch: Shader 57 bind to kernel 1 '_Z16mb_sad_calc_nvmbPtS_ii'
GPGPU-Sim uArch: Shader 58 bind to kernel 1 '_Z16mb_sad_calc_nvmbPtS_ii'
GPGPU-Sim uArch: Shader 59 bind to kernel 1 '_Z16mb_sad_calc_nvmbPtS_ii'
GPGPU-Sim uArch: Shader 60 bind to kernel 1 '_Z16mb_sad_calc_nvmbPtS_ii'
GPGPU-Sim uArch: Shader 61 bind to kernel 1 '_Z16mb_sad_calc_nvmbPtS_ii'
GPGPU-Sim uArch: Shader 62 bind to kernel 1 '_Z16mb_sad_calc_nvmbPtS_ii'
GPGPU-Sim uArch: Shader 63 bind to kernel 1 '_Z16mb_sad_calc_nvmbPtS_ii'
GPGPU-Sim uArch: Shader 64 bind to kernel 1 '_Z16mb_sad_calc_nvmbPtS_ii'
GPGPU-Sim uArch: Shader 65 bind to kernel 1 '_Z16mb_sad_calc_nvmbPtS_ii'
GPGPU-Sim uArch: Shader 66 bind to kernel 1 '_Z16mb_sad_calc_nvmbPtS_ii'
GPGPU-Sim uArch: Shader 67 bind to kernel 1 '_Z16mb_sad_calc_nvmbPtS_ii'
GPGPU-Sim uArch: Shader 68 bind to kernel 1 '_Z16mb_sad_calc_nvmbPtS_ii'
GPGPU-Sim uArch: Shader 69 bind to kernel 1 '_Z16mb_sad_calc_nvmbPtS_ii'
GPGPU-Sim uArch: Shader 70 bind to kernel 1 '_Z16mb_sad_calc_nvmbPtS_ii'
GPGPU-Sim uArch: Shader 71 bind to kernel 1 '_Z16mb_sad_calc_nvmbPtS_ii'
GPGPU-Sim uArch: Shader 72 bind to kernel 1 '_Z16mb_sad_calc_nvmbPtS_ii'
GPGPU-Sim uArch: Shader 73 bind to kernel 1 '_Z16mb_sad_calc_nvmbPtS_ii'
GPGPU-Sim uArch: Shader 74 bind to kernel 1 '_Z16mb_sad_calc_nvmbPtS_ii'
GPGPU-Sim uArch: Shader 75 bind to kernel 1 '_Z16mb_sad_calc_nvmbPtS_ii'
GPGPU-Sim uArch: Shader 76 bind to kernel 1 '_Z16mb_sad_calc_nvmbPtS_ii'
GPGPU-Sim uArch: Shader 77 bind to kernel 1 '_Z16mb_sad_calc_nvmbPtS_ii'
GPGPU-Sim uArch: Shader 78 bind to kernel 1 '_Z16mb_sad_calc_nvmbPtS_ii'
GPGPU-Sim uArch: Shader 79 bind to kernel 1 '_Z16mb_sad_calc_nvmbPtS_ii'
Destroy streams for kernel 1: size 0
kernel_name = _Z16mb_sad_calc_nvmbPtS_ii 
kernel_launch_uid = 1 
gpu_sim_cycle = 152521
gpu_sim_insn = 237413088
gpu_ipc =    1556.5928
gpu_tot_sim_cycle = 152521
gpu_tot_sim_insn = 237413088
gpu_tot_ipc =    1556.5928
gpu_tot_issued_cta = 1584
gpu_occupancy = 57.7949% 
gpu_tot_occupancy = 57.7949% 
max_total_param_size = 0
gpu_stall_dramfull = 0
gpu_stall_icnt2sh    = 1178
partiton_level_parallism =      13.5765
partiton_level_parallism_total  =      13.5765
partiton_level_parallism_util =      14.7798
partiton_level_parallism_util_total  =      14.7798
L2_BW  =     502.8600 GB/Sec
L2_BW_total  =     502.8600 GB/Sec
gpu_total_sim_rate=155578
############## bottleneck_stats #############
cycles: core 152521, icnt 152521, l2 152521, dram 114525
gpu_ipc	1556.593
gpu_tot_issued_cta = 1584, average cycles = 96
n_dram_writes	 0, n_dram_reads	 0
n_GLOBAL_ACC_R	 0 
n_LOCAL_ACC_R	 0 
n_CONST_ACC_R	 0 
n_TEXTURE_ACC_R	 0 
n_GLOBAL_ACC_W	 0 
n_LOCAL_ACC_W	 0 
n_L1_WRBK_ACC	 0 
n_L2_WRBK_ACC	 0 
n_L1_WR_ALLOC_R	 0 
n_L2_WR_ALLOC_R	 0 

n_sm	 80, n_schedulers	 4
scheduler util	0.161	80
L1D data util	0.700	80	0.713	14
L1D tag util	0.216	80	0.218	0
L2 data util	0.040	64	0.049	0
L2 tag util	0.217	64	0.226	0
n_l2_access	 2117290
icnt s2m util	0.000	0	0.000	0	flits per packet: -nan
icnt m2s util	0.000	0	0.000	0	flits per packet: -nan
sum=0
n_mem	 32
dram util	0.000	0	0.000	0

latency_l1_hit:	6407800, num_l1_reqs:	320390
L1 hit latency:	20
latency_l2_hit:	112990932, num_l2_reqs:	392314
L2 hit latency:	288
latency_dram:	375166491, num_dram_reqs:	1724976
DRAM latency:	217

n_reg	65536, n_smem	98304, n_thread	2048, n_tb	32
reg file	0.984
smem size	0.000
thread slot	0.656
TB slot    	0.656
L1I tag util	0.324	80	0.328	0

n_mem_pipe	1, n_sp_pipe	4, n_sfu_pipe	4
mem pipe util	0.160	80	0.162	0
sp pipe util	0.000	0	0.000	0
sfu pipe util	0.000	0	0.000	0
ldst mem cycle	0.000	0	0.000	0

smem port	0.000	0

n_reg_bank	16
reg port	0.257	16	0.273	11
L1D tag util	0.216	80	0.218	0
L1D fill util	0.027	80	0.029	14
n_l1d_mshr	4096
L1D mshr util	0.001	80
n_l1d_missq	16
L1D missq util	0.011	80
L1D hit rate	0.121
L1D miss rate	0.879
L1D rsfail rate	0.000
L2 tag util	0.217	64	0.226	0
L2 fill util	0.000	0	0.000	0
n_l2_mshr	192
n_l2_missq	32
L2 mshr util	0.000	0	0.000	0
L2 missq util	0.000	0	0.000	0
L2 hit rate	0.185
L2 miss rate	0.815
L2 rsfail rate	0.000

dram activity	0.000	0	0.000	0

load trans eff	0.062
load trans sz	32.000
load_useful_bytes 1824768, load_transaction_bytes 29196288, icnt_m2s_bytes 0
n_gmem_load_insns 912384, n_gmem_load_accesses 912384
n_smem_access_insn 0, n_smem_accesses 0

tmp_counter/12	0.217

run 0.025, fetch 0.000, sync 0.050, control 0.000, data 0.921, struct 0.003
############ end_bottleneck_stats #############

========= Core cache stats =========
L1I_cache:
	L1I_total_cache_accesses = 0
	L1I_total_cache_misses = 0
	L1I_total_cache_pending_hits = 0
	L1I_total_cache_reservation_fails = 0
L1D_cache:
	L1D_cache_core[0]: Access = 33300, Miss = 29481, Miss_rate = 0.885, Pending_hits = 0, Reservation_fails = 0
	L1D_cache_core[1]: Access = 33300, Miss = 29027, Miss_rate = 0.872, Pending_hits = 0, Reservation_fails = 0
	L1D_cache_core[2]: Access = 33300, Miss = 29432, Miss_rate = 0.884, Pending_hits = 0, Reservation_fails = 0
	L1D_cache_core[3]: Access = 33300, Miss = 29126, Miss_rate = 0.875, Pending_hits = 0, Reservation_fails = 0
	L1D_cache_core[4]: Access = 33300, Miss = 29195, Miss_rate = 0.877, Pending_hits = 0, Reservation_fails = 0
	L1D_cache_core[5]: Access = 33300, Miss = 28982, Miss_rate = 0.870, Pending_hits = 0, Reservation_fails = 0
	L1D_cache_core[6]: Access = 33300, Miss = 29185, Miss_rate = 0.876, Pending_hits = 0, Reservation_fails = 0
	L1D_cache_core[7]: Access = 33300, Miss = 29396, Miss_rate = 0.883, Pending_hits = 0, Reservation_fails = 0
	L1D_cache_core[8]: Access = 33300, Miss = 29012, Miss_rate = 0.871, Pending_hits = 0, Reservation_fails = 0
	L1D_cache_core[9]: Access = 33300, Miss = 29370, Miss_rate = 0.882, Pending_hits = 0, Reservation_fails = 0
	L1D_cache_core[10]: Access = 33300, Miss = 29417, Miss_rate = 0.883, Pending_hits = 0, Reservation_fails = 0
	L1D_cache_core[11]: Access = 33300, Miss = 29339, Miss_rate = 0.881, Pending_hits = 0, Reservation_fails = 0
	L1D_cache_core[12]: Access = 33300, Miss = 29302, Miss_rate = 0.880, Pending_hits = 0, Reservation_fails = 0
	L1D_cache_core[13]: Access = 33300, Miss = 29431, Miss_rate = 0.884, Pending_hits = 0, Reservation_fails = 0
	L1D_cache_core[14]: Access = 33300, Miss = 29564, Miss_rate = 0.888, Pending_hits = 0, Reservation_fails = 0
	L1D_cache_core[15]: Access = 33300, Miss = 29321, Miss_rate = 0.881, Pending_hits = 0, Reservation_fails = 0
	L1D_cache_core[16]: Access = 33300, Miss = 29257, Miss_rate = 0.879, Pending_hits = 0, Reservation_fails = 0
	L1D_cache_core[17]: Access = 33300, Miss = 29442, Miss_rate = 0.884, Pending_hits = 0, Reservation_fails = 0
	L1D_cache_core[18]: Access = 33300, Miss = 29349, Miss_rate = 0.881, Pending_hits = 0, Reservation_fails = 0
	L1D_cache_core[19]: Access = 33300, Miss = 29092, Miss_rate = 0.874, Pending_hits = 0, Reservation_fails = 0
	L1D_cache_core[20]: Access = 33300, Miss = 29325, Miss_rate = 0.881, Pending_hits = 0, Reservation_fails = 0
	L1D_cache_core[21]: Access = 33300, Miss = 29417, Miss_rate = 0.883, Pending_hits = 0, Reservation_fails = 0
	L1D_cache_core[22]: Access = 33300, Miss = 29017, Miss_rate = 0.871, Pending_hits = 0, Reservation_fails = 0
	L1D_cache_core[23]: Access = 33300, Miss = 29109, Miss_rate = 0.874, Pending_hits = 0, Reservation_fails = 0
	L1D_cache_core[24]: Access = 33300, Miss = 29110, Miss_rate = 0.874, Pending_hits = 0, Reservation_fails = 0
	L1D_cache_core[25]: Access = 33300, Miss = 29393, Miss_rate = 0.883, Pending_hits = 0, Reservation_fails = 0
	L1D_cache_core[26]: Access = 33300, Miss = 29213, Miss_rate = 0.877, Pending_hits = 0, Reservation_fails = 0
	L1D_cache_core[27]: Access = 33300, Miss = 29315, Miss_rate = 0.880, Pending_hits = 0, Reservation_fails = 0
	L1D_cache_core[28]: Access = 33300, Miss = 29134, Miss_rate = 0.875, Pending_hits = 0, Reservation_fails = 0
	L1D_cache_core[29]: Access = 33300, Miss = 29653, Miss_rate = 0.890, Pending_hits = 0, Reservation_fails = 0
	L1D_cache_core[30]: Access = 33300, Miss = 29382, Miss_rate = 0.882, Pending_hits = 0, Reservation_fails = 0
	L1D_cache_core[31]: Access = 33300, Miss = 28932, Miss_rate = 0.869, Pending_hits = 0, Reservation_fails = 0
	L1D_cache_core[32]: Access = 33300, Miss = 29292, Miss_rate = 0.880, Pending_hits = 0, Reservation_fails = 0
	L1D_cache_core[33]: Access = 33300, Miss = 29344, Miss_rate = 0.881, Pending_hits = 0, Reservation_fails = 0
	L1D_cache_core[34]: Access = 33300, Miss = 29491, Miss_rate = 0.886, Pending_hits = 0, Reservation_fails = 0
	L1D_cache_core[35]: Access = 33300, Miss = 29034, Miss_rate = 0.872, Pending_hits = 0, Reservation_fails = 0
	L1D_cache_core[36]: Access = 33300, Miss = 29377, Miss_rate = 0.882, Pending_hits = 0, Reservation_fails = 0
	L1D_cache_core[37]: Access = 33300, Miss = 29191, Miss_rate = 0.877, Pending_hits = 0, Reservation_fails = 0
	L1D_cache_core[38]: Access = 33300, Miss = 29279, Miss_rate = 0.879, Pending_hits = 0, Reservation_fails = 0
	L1D_cache_core[39]: Access = 33300, Miss = 29310, Miss_rate = 0.880, Pending_hits = 0, Reservation_fails = 0
	L1D_cache_core[40]: Access = 33300, Miss = 29249, Miss_rate = 0.878, Pending_hits = 0, Reservation_fails = 0
	L1D_cache_core[41]: Access = 33300, Miss = 29351, Miss_rate = 0.881, Pending_hits = 0, Reservation_fails = 0
	L1D_cache_core[42]: Access = 33300, Miss = 29216, Miss_rate = 0.877, Pending_hits = 0, Reservation_fails = 0
	L1D_cache_core[43]: Access = 33300, Miss = 29188, Miss_rate = 0.877, Pending_hits = 0, Reservation_fails = 0
	L1D_cache_core[44]: Access = 33300, Miss = 29260, Miss_rate = 0.879, Pending_hits = 0, Reservation_fails = 0
	L1D_cache_core[45]: Access = 33300, Miss = 29367, Miss_rate = 0.882, Pending_hits = 0, Reservation_fails = 0
	L1D_cache_core[46]: Access = 33300, Miss = 29565, Miss_rate = 0.888, Pending_hits = 0, Reservation_fails = 0
	L1D_cache_core[47]: Access = 33300, Miss = 29359, Miss_rate = 0.882, Pending_hits = 0, Reservation_fails = 0
	L1D_cache_core[48]: Access = 33300, Miss = 29403, Miss_rate = 0.883, Pending_hits = 0, Reservation_fails = 0
	L1D_cache_core[49]: Access = 33300, Miss = 29258, Miss_rate = 0.879, Pending_hits = 0, Reservation_fails = 0
	L1D_cache_core[50]: Access = 33300, Miss = 29423, Miss_rate = 0.884, Pending_hits = 0, Reservation_fails = 0
	L1D_cache_core[51]: Access = 33300, Miss = 29311, Miss_rate = 0.880, Pending_hits = 0, Reservation_fails = 0
	L1D_cache_core[52]: Access = 33300, Miss = 29469, Miss_rate = 0.885, Pending_hits = 0, Reservation_fails = 0
	L1D_cache_core[53]: Access = 33300, Miss = 29298, Miss_rate = 0.880, Pending_hits = 0, Reservation_fails = 0
	L1D_cache_core[54]: Access = 33300, Miss = 29296, Miss_rate = 0.880, Pending_hits = 0, Reservation_fails = 0
	L1D_cache_core[55]: Access = 33300, Miss = 28979, Miss_rate = 0.870, Pending_hits = 0, Reservation_fails = 0
	L1D_cache_core[56]: Access = 33300, Miss = 29237, Miss_rate = 0.878, Pending_hits = 0, Reservation_fails = 0
	L1D_cache_core[57]: Access = 33300, Miss = 29282, Miss_rate = 0.879, Pending_hits = 0, Reservation_fails = 0
	L1D_cache_core[58]: Access = 33300, Miss = 29348, Miss_rate = 0.881, Pending_hits = 0, Reservation_fails = 0
	L1D_cache_core[59]: Access = 33300, Miss = 29212, Miss_rate = 0.877, Pending_hits = 0, Reservation_fails = 0
	L1D_cache_core[60]: Access = 33300, Miss = 29308, Miss_rate = 0.880, Pending_hits = 0, Reservation_fails = 0
	L1D_cache_core[61]: Access = 33300, Miss = 29428, Miss_rate = 0.884, Pending_hits = 0, Reservation_fails = 0
	L1D_cache_core[62]: Access = 33300, Miss = 29360, Miss_rate = 0.882, Pending_hits = 0, Reservation_fails = 0
	L1D_cache_core[63]: Access = 33300, Miss = 29347, Miss_rate = 0.881, Pending_hits = 0, Reservation_fails = 0
	L1D_cache_core[64]: Access = 31635, Miss = 27540, Miss_rate = 0.871, Pending_hits = 0, Reservation_fails = 0
	L1D_cache_core[65]: Access = 31635, Miss = 27727, Miss_rate = 0.876, Pending_hits = 0, Reservation_fails = 0
	L1D_cache_core[66]: Access = 31635, Miss = 27514, Miss_rate = 0.870, Pending_hits = 0, Reservation_fails = 0
	L1D_cache_core[67]: Access = 31635, Miss = 27719, Miss_rate = 0.876, Pending_hits = 0, Reservation_fails = 0
	L1D_cache_core[68]: Access = 31635, Miss = 27675, Miss_rate = 0.875, Pending_hits = 0, Reservation_fails = 0
	L1D_cache_core[69]: Access = 31635, Miss = 27561, Miss_rate = 0.871, Pending_hits = 0, Reservation_fails = 0
	L1D_cache_core[70]: Access = 31635, Miss = 27812, Miss_rate = 0.879, Pending_hits = 0, Reservation_fails = 0
	L1D_cache_core[71]: Access = 31635, Miss = 27823, Miss_rate = 0.880, Pending_hits = 0, Reservation_fails = 0
	L1D_cache_core[72]: Access = 31635, Miss = 28119, Miss_rate = 0.889, Pending_hits = 0, Reservation_fails = 0
	L1D_cache_core[73]: Access = 31635, Miss = 27634, Miss_rate = 0.874, Pending_hits = 0, Reservation_fails = 0
	L1D_cache_core[74]: Access = 31635, Miss = 27517, Miss_rate = 0.870, Pending_hits = 0, Reservation_fails = 0
	L1D_cache_core[75]: Access = 31635, Miss = 27698, Miss_rate = 0.876, Pending_hits = 0, Reservation_fails = 0
	L1D_cache_core[76]: Access = 31635, Miss = 27525, Miss_rate = 0.870, Pending_hits = 0, Reservation_fails = 0
	L1D_cache_core[77]: Access = 31635, Miss = 27596, Miss_rate = 0.872, Pending_hits = 0, Reservation_fails = 0
	L1D_cache_core[78]: Access = 31635, Miss = 27493, Miss_rate = 0.869, Pending_hits = 0, Reservation_fails = 0
	L1D_cache_core[79]: Access = 31635, Miss = 27465, Miss_rate = 0.868, Pending_hits = 0, Reservation_fails = 0
	L1D_total_cache_accesses = 2637360
	L1D_total_cache_misses = 2316970
	L1D_total_cache_miss_rate = 0.8785
	L1D_total_cache_pending_hits = 0
	L1D_total_cache_reservation_fails = 0
	L1D_cache_data_port_util = 0.028
	L1D_cache_fill_port_util = 0.029
L1C_cache:
	L1C_total_cache_accesses = 0
	L1C_total_cache_misses = 0
	L1C_total_cache_pending_hits = 0
	L1C_total_cache_reservation_fails = 0
L1T_cache:
	L1T_total_cache_accesses = 8175273
	L1T_total_cache_misses = 15528
	L1T_total_cache_miss_rate = 0.0019
	L1T_total_cache_pending_hits = 8159745
	L1T_total_cache_reservation_fails = 0

Total_core_cache_stats:
	Total_core_cache_stats_breakdown[GLOBAL_ACC_R][HIT] = 320390
	Total_core_cache_stats_breakdown[GLOBAL_ACC_R][HIT_RESERVED] = 0
	Total_core_cache_stats_breakdown[GLOBAL_ACC_R][MISS] = 330210
	Total_core_cache_stats_breakdown[GLOBAL_ACC_R][RESERVATION_FAIL] = 0
	Total_core_cache_stats_breakdown[GLOBAL_ACC_R][SECTOR_MISS] = 261784
	Total_core_cache_stats_breakdown[LOCAL_ACC_R][HIT] = 0
	Total_core_cache_stats_breakdown[LOCAL_ACC_R][HIT_RESERVED] = 0
	Total_core_cache_stats_breakdown[LOCAL_ACC_R][MISS] = 0
	Total_core_cache_stats_breakdown[LOCAL_ACC_R][RESERVATION_FAIL] = 0
	Total_core_cache_stats_breakdown[LOCAL_ACC_R][SECTOR_MISS] = 0
	Total_core_cache_stats_breakdown[CONST_ACC_R][HIT] = 0
	Total_core_cache_stats_breakdown[CONST_ACC_R][HIT_RESERVED] = 0
	Total_core_cache_stats_breakdown[CONST_ACC_R][MISS] = 0
	Total_core_cache_stats_breakdown[CONST_ACC_R][RESERVATION_FAIL] = 0
	Total_core_cache_stats_breakdown[CONST_ACC_R][SECTOR_MISS] = 0
	Total_core_cache_stats_breakdown[TEXTURE_ACC_R][HIT] = 0
	Total_core_cache_stats_breakdown[TEXTURE_ACC_R][HIT_RESERVED] = 8159745
	Total_core_cache_stats_breakdown[TEXTURE_ACC_R][MISS] = 15528
	Total_core_cache_stats_breakdown[TEXTURE_ACC_R][RESERVATION_FAIL] = 0
	Total_core_cache_stats_breakdown[TEXTURE_ACC_R][SECTOR_MISS] = 0
	Total_core_cache_stats_breakdown[GLOBAL_ACC_W][HIT] = 0
	Total_core_cache_stats_breakdown[GLOBAL_ACC_W][HIT_RESERVED] = 0
	Total_core_cache_stats_breakdown[GLOBAL_ACC_W][MISS] = 1724976
	Total_core_cache_stats_breakdown[GLOBAL_ACC_W][RESERVATION_FAIL] = 0
	Total_core_cache_stats_breakdown[GLOBAL_ACC_W][SECTOR_MISS] = 0
	Total_core_cache_stats_breakdown[LOCAL_ACC_W][HIT] = 0
	Total_core_cache_stats_breakdown[LOCAL_ACC_W][HIT_RESERVED] = 0
	Total_core_cache_stats_breakdown[LOCAL_ACC_W][MISS] = 0
	Total_core_cache_stats_breakdown[LOCAL_ACC_W][RESERVATION_FAIL] = 0
	Total_core_cache_stats_breakdown[LOCAL_ACC_W][SECTOR_MISS] = 0
	Total_core_cache_stats_breakdown[L1_WRBK_ACC][HIT] = 0
	Total_core_cache_stats_breakdown[L1_WRBK_ACC][HIT_RESERVED] = 0
	Total_core_cache_stats_breakdown[L1_WRBK_ACC][MISS] = 0
	Total_core_cache_stats_breakdown[L1_WRBK_ACC][RESERVATION_FAIL] = 0
	Total_core_cache_stats_breakdown[L1_WRBK_ACC][SECTOR_MISS] = 0
	Total_core_cache_stats_breakdown[L2_WRBK_ACC][HIT] = 0
	Total_core_cache_stats_breakdown[L2_WRBK_ACC][HIT_RESERVED] = 0
	Total_core_cache_stats_breakdown[L2_WRBK_ACC][MISS] = 0
	Total_core_cache_stats_breakdown[L2_WRBK_ACC][RESERVATION_FAIL] = 0
	Total_core_cache_stats_breakdown[L2_WRBK_ACC][SECTOR_MISS] = 0
	Total_core_cache_stats_breakdown[INST_ACC_R][HIT] = 0
	Total_core_cache_stats_breakdown[INST_ACC_R][HIT_RESERVED] = 0
	Total_core_cache_stats_breakdown[INST_ACC_R][MISS] = 0
	Total_core_cache_stats_breakdown[INST_ACC_R][RESERVATION_FAIL] = 0
	Total_core_cache_stats_breakdown[INST_ACC_R][SECTOR_MISS] = 0
	Total_core_cache_stats_breakdown[L1_WR_ALLOC_R][HIT] = 0
	Total_core_cache_stats_breakdown[L1_WR_ALLOC_R][HIT_RESERVED] = 0
	Total_core_cache_stats_breakdown[L1_WR_ALLOC_R][MISS] = 0
	Total_core_cache_stats_breakdown[L1_WR_ALLOC_R][RESERVATION_FAIL] = 0
	Total_core_cache_stats_breakdown[L1_WR_ALLOC_R][SECTOR_MISS] = 0
	Total_core_cache_stats_breakdown[L2_WR_ALLOC_R][HIT] = 0
	Total_core_cache_stats_breakdown[L2_WR_ALLOC_R][HIT_RESERVED] = 0
	Total_core_cache_stats_breakdown[L2_WR_ALLOC_R][MISS] = 0
	Total_core_cache_stats_breakdown[L2_WR_ALLOC_R][RESERVATION_FAIL] = 0
	Total_core_cache_stats_breakdown[L2_WR_ALLOC_R][SECTOR_MISS] = 0
	Total_core_cache_stats_breakdown[GLOBAL_ACC_R][TOTAL_ACCESS] = 912384
	Total_core_cache_stats_breakdown[TEXTURE_ACC_R][TOTAL_ACCESS] = 8175273
	Total_core_cache_stats_breakdown[GLOBAL_ACC_W][TOTAL_ACCESS] = 1724976

Total_core_cache_fail_stats:
Shader 0 warp_id issue ditsribution:
warp_id:
0, 1, 2, 3, 4, 5, 6, 7, 8, 9, 10, 11, 12, 13, 14, 15, 16, 17, 18, 19, 20, 21, 22, 23, 24, 25, 26, 27, 28, 29, 30, 31, 32, 33, 34, 35, 36, 37, 38, 39, 
distro:
2480, 2480, 2480, 2480, 2480, 2480, 2480, 2480, 2480, 2480, 2480, 2480, 2480, 2480, 2480, 2480, 2480, 2480, 2480, 2480, 2480, 2480, 2480, 2480, 2480, 2480, 2480, 2480, 2480, 2480, 2480, 2480, 2480, 2480, 2480, 2480, 2480, 2480, 2480, 2480, 
gpgpu_n_tot_thrd_icount = 251412480
gpgpu_n_tot_w_icount = 7856640
gpgpu_n_stall_shd_mem = 8997958
gpgpu_n_mem_read_local = 0
gpgpu_n_mem_write_local = 0
gpgpu_n_mem_read_global = 330202
gpgpu_n_mem_write_global = 1724976
gpgpu_n_mem_texture = 15528
gpgpu_n_mem_const = 0
gpgpu_n_load_insn  = 27599616
gpgpu_n_store_insn = 1724976
gpgpu_n_shmem_insn = 0
gpgpu_n_sstarr_insn = 0
gpgpu_n_tex_insn = 27599616
gpgpu_n_const_mem_insn = 0
gpgpu_n_param_mem_insn = 386496
gpgpu_n_shmem_bkconflict = 0
gpgpu_n_cache_bkconflict = 0
gpgpu_n_intrawarp_mshr_merge = 0
gpgpu_n_cmem_portconflict = 0
gpgpu_stall_shd_mem[c_mem][resource_stall] = 0
gpgpu_stall_shd_mem[s_mem][bk_conf] = 0
gpgpu_stall_shd_mem[gl_mem][resource_stall] = 1667952
gpgpu_stall_shd_mem[gl_mem][coal_stall] = 0
gpgpu_stall_shd_mem[gl_mem][data_port_stall] = 0
gpu_reg_bank_conflict_stalls = 0
Warp Occupancy Distribution:
Stall:23241073	W0_Idle:280809	W0_Scoreboard:14584286	W1:0	W2:0	W3:0	W4:0	W5:0	W6:0	W7:0	W8:0	W9:0	W10:0	W11:0	W12:0	W13:0	W14:0	W15:0	W16:0	W17:0	W18:0	W19:0	W20:0	W21:0	W22:0	W23:0	W24:0	W25:0	W26:0	W27:0	W28:1924560	W29:2003760	W30:0	W31:0	W32:3928320
single_issue_nums: WS0:1984000	WS1:1984000	WS2:1944320	WS3:1944320	
dual_issue_nums: WS0:0	WS1:0	WS2:0	WS3:0	
traffic_breakdown_coretomem[GLOBAL_ACC_R] = 2641616 {8:330202,}
traffic_breakdown_coretomem[GLOBAL_ACC_W] = 68999040 {40:1724976,}
traffic_breakdown_coretomem[TEXTURE_ACC_R] = 124224 {8:15528,}
traffic_breakdown_memtocore[GLOBAL_ACC_R] = 13208080 {40:330202,}
traffic_breakdown_memtocore[GLOBAL_ACC_W] = 13799808 {8:1724976,}
traffic_breakdown_memtocore[TEXTURE_ACC_R] = 2484480 {40:62112,}
maxmflatency = 1678 
max_icnt2mem_latency = 940 
maxmrqlatency = 0 
max_icnt2sh_latency = 1061 
averagemflatency = 230 
avg_icnt2mem_latency = 48 
avg_icnt2sh_latency = 15 
mrq_lat_table:0 	0 	0 	0 	0 	0 	0 	0 	0 	0 	0 	0 	0 	0 	0 	0 	0 	0 	0 	0 	0 	0 	0 	0 	0 	0 	0 	0 	0 	0 	0 	0 	
dq_lat_table:0 	0 	0 	0 	0 	0 	0 	0 	0 	0 	0 	0 	0 	0 	0 	0 	0 	0 	0 	0 	0 	0 	0 	0 	0 	0 	0 	0 	0 	0 	0 	0 	
mf_lat_table:0 	0 	0 	0 	0 	0 	0 	1915611 	101904 	85808 	13967 	0 	0 	0 	0 	0 	0 	0 	0 	0 	0 	0 	0 	0 	0 	0 	0 	0 	0 	0 	0 	0 	
icnt2mem_lat_table:0 	4123 	975 	250 	1427290 	427933 	90603 	48041 	46446 	25045 	0 	0 	0 	0 	0 	0 	0 	0 	0 	0 	0 	0 	0 	0 	
icnt2sh_lat_table:0 	1979936 	67222 	8210 	3100 	2387 	3583 	7758 	17932 	26968 	194 	0 	0 	0 	0 	0 	0 	0 	0 	0 	0 	0 	0 	0 	
mf_lat_pw_table:0 	0 	0 	0 	0 	0 	0 	280 	8 	5 	1 	0 	0 	0 	0 	0 	0 	0 	0 	0 	0 	0 	0 	0 	0 	0 	0 	0 	0 	0 	0 	0 	
maximum concurrent accesses to same row:
dram[0]:         0         0         0         0         0         0         0         0         0         0         0         0         0         0         0         0 
dram[1]:         0         0         0         0         0         0         0         0         0         0         0         0         0         0         0         0 
dram[2]:         0         0         0         0         0         0         0         0         0         0         0         0         0         0         0         0 
dram[3]:         0         0         0         0         0         0         0         0         0         0         0         0         0         0         0         0 
dram[4]:         0         0         0         0         0         0         0         0         0         0         0         0         0         0         0         0 
dram[5]:         0         0         0         0         0         0         0         0         0         0         0         0         0         0         0         0 
dram[6]:         0         0         0         0         0         0         0         0         0         0         0         0         0         0         0         0 
dram[7]:         0         0         0         0         0         0         0         0         0         0         0         0         0         0         0         0 
dram[8]:         0         0         0         0         0         0         0         0         0         0         0         0         0         0         0         0 
dram[9]:         0         0         0         0         0         0         0         0         0         0         0         0         0         0         0         0 
dram[10]:         0         0         0         0         0         0         0         0         0         0         0         0         0         0         0         0 
dram[11]:         0         0         0         0         0         0         0         0         0         0         0         0         0         0         0         0 
dram[12]:         0         0         0         0         0         0         0         0         0         0         0         0         0         0         0         0 
dram[13]:         0         0         0         0         0         0         0         0         0         0         0         0         0         0         0         0 
dram[14]:         0         0         0         0         0         0         0         0         0         0         0         0         0         0         0         0 
dram[15]:         0         0         0         0         0         0         0         0         0         0         0         0         0         0         0         0 
dram[16]:         0         0         0         0         0         0         0         0         0         0         0         0         0         0         0         0 
dram[17]:         0         0         0         0         0         0         0         0         0         0         0         0         0         0         0         0 
dram[18]:         0         0         0         0         0         0         0         0         0         0         0         0         0         0         0         0 
dram[19]:         0         0         0         0         0         0         0         0         0         0         0         0         0         0         0         0 
dram[20]:         0         0         0         0         0         0         0         0         0         0         0         0         0         0         0         0 
dram[21]:         0         0         0         0         0         0         0         0         0         0         0         0         0         0         0         0 
dram[22]:         0         0         0         0         0         0         0         0         0         0         0         0         0         0         0         0 
dram[23]:         0         0         0         0         0         0         0         0         0         0         0         0         0         0         0         0 
dram[24]:         0         0         0         0         0         0         0         0         0         0         0         0         0         0         0         0 
dram[25]:         0         0         0         0         0         0         0         0         0         0         0         0         0         0         0         0 
dram[26]:         0         0         0         0         0         0         0         0         0         0         0         0         0         0         0         0 
dram[27]:         0         0         0         0         0         0         0         0         0         0         0         0         0         0         0         0 
dram[28]:         0         0         0         0         0         0         0         0         0         0         0         0         0         0         0         0 
dram[29]:         0         0         0         0         0         0         0         0         0         0         0         0         0         0         0         0 
dram[30]:         0         0         0         0         0         0         0         0         0         0         0         0         0         0         0         0 
dram[31]:         0         0         0         0         0         0         0         0         0         0         0         0         0         0         0         0 
maximum service time to same row:
dram[0]:         0         0         0         0         0         0         0         0         0         0         0         0         0         0         0         0 
dram[1]:         0         0         0         0         0         0         0         0         0         0         0         0         0         0         0         0 
dram[2]:         0         0         0         0         0         0         0         0         0         0         0         0         0         0         0         0 
dram[3]:         0         0         0         0         0         0         0         0         0         0         0         0         0         0         0         0 
dram[4]:         0         0         0         0         0         0         0         0         0         0         0         0         0         0         0         0 
dram[5]:         0         0         0         0         0         0         0         0         0         0         0         0         0         0         0         0 
dram[6]:         0         0         0         0         0         0         0         0         0         0         0         0         0         0         0         0 
dram[7]:         0         0         0         0         0         0         0         0         0         0         0         0         0         0         0         0 
dram[8]:         0         0         0         0         0         0         0         0         0         0         0         0         0         0         0         0 
dram[9]:         0         0         0         0         0         0         0         0         0         0         0         0         0         0         0         0 
dram[10]:         0         0         0         0         0         0         0         0         0         0         0         0         0         0         0         0 
dram[11]:         0         0         0         0         0         0         0         0         0         0         0         0         0         0         0         0 
dram[12]:         0         0         0         0         0         0         0         0         0         0         0         0         0         0         0         0 
dram[13]:         0         0         0         0         0         0         0         0         0         0         0         0         0         0         0         0 
dram[14]:         0         0         0         0         0         0         0         0         0         0         0         0         0         0         0         0 
dram[15]:         0         0         0         0         0         0         0         0         0         0         0         0         0         0         0         0 
dram[16]:         0         0         0         0         0         0         0         0         0         0         0         0         0         0         0         0 
dram[17]:         0         0         0         0         0         0         0         0         0         0         0         0         0         0         0         0 
dram[18]:         0         0         0         0         0         0         0         0         0         0         0         0         0         0         0         0 
dram[19]:         0         0         0         0         0         0         0         0         0         0         0         0         0         0         0         0 
dram[20]:         0         0         0         0         0         0         0         0         0         0         0         0         0         0         0         0 
dram[21]:         0         0         0         0         0         0         0         0         0         0         0         0         0         0         0         0 
dram[22]:         0         0         0         0         0         0         0         0         0         0         0         0         0         0         0         0 
dram[23]:         0         0         0         0         0         0         0         0         0         0         0         0         0         0         0         0 
dram[24]:         0         0         0         0         0         0         0         0         0         0         0         0         0         0         0         0 
dram[25]:         0         0         0         0         0         0         0         0         0         0         0         0         0         0         0         0 
dram[26]:         0         0         0         0         0         0         0         0         0         0         0         0         0         0         0         0 
dram[27]:         0         0         0         0         0         0         0         0         0         0         0         0         0         0         0         0 
dram[28]:         0         0         0         0         0         0         0         0         0         0         0         0         0         0         0         0 
dram[29]:         0         0         0         0         0         0         0         0         0         0         0         0         0         0         0         0 
dram[30]:         0         0         0         0         0         0         0         0         0         0         0         0         0         0         0         0 
dram[31]:         0         0         0         0         0         0         0         0         0         0         0         0         0         0         0         0 
average row accesses per activate:
dram[0]:      -nan      -nan      -nan      -nan      -nan      -nan      -nan      -nan      -nan      -nan      -nan      -nan      -nan      -nan      -nan      -nan 
dram[1]:      -nan      -nan      -nan      -nan      -nan      -nan      -nan      -nan      -nan      -nan      -nan      -nan      -nan      -nan      -nan      -nan 
dram[2]:      -nan      -nan      -nan      -nan      -nan      -nan      -nan      -nan      -nan      -nan      -nan      -nan      -nan      -nan      -nan      -nan 
dram[3]:      -nan      -nan      -nan      -nan      -nan      -nan      -nan      -nan      -nan      -nan      -nan      -nan      -nan      -nan      -nan      -nan 
dram[4]:      -nan      -nan      -nan      -nan      -nan      -nan      -nan      -nan      -nan      -nan      -nan      -nan      -nan      -nan      -nan      -nan 
dram[5]:      -nan      -nan      -nan      -nan      -nan      -nan      -nan      -nan      -nan      -nan      -nan      -nan      -nan      -nan      -nan      -nan 
dram[6]:      -nan      -nan      -nan      -nan      -nan      -nan      -nan      -nan      -nan      -nan      -nan      -nan      -nan      -nan      -nan      -nan 
dram[7]:      -nan      -nan      -nan      -nan      -nan      -nan      -nan      -nan      -nan      -nan      -nan      -nan      -nan      -nan      -nan      -nan 
dram[8]:      -nan      -nan      -nan      -nan      -nan      -nan      -nan      -nan      -nan      -nan      -nan      -nan      -nan      -nan      -nan      -nan 
dram[9]:      -nan      -nan      -nan      -nan      -nan      -nan      -nan      -nan      -nan      -nan      -nan      -nan      -nan      -nan      -nan      -nan 
dram[10]:      -nan      -nan      -nan      -nan      -nan      -nan      -nan      -nan      -nan      -nan      -nan      -nan      -nan      -nan      -nan      -nan 
dram[11]:      -nan      -nan      -nan      -nan      -nan      -nan      -nan      -nan      -nan      -nan      -nan      -nan      -nan      -nan      -nan      -nan 
dram[12]:      -nan      -nan      -nan      -nan      -nan      -nan      -nan      -nan      -nan      -nan      -nan      -nan      -nan      -nan      -nan      -nan 
dram[13]:      -nan      -nan      -nan      -nan      -nan      -nan      -nan      -nan      -nan      -nan      -nan      -nan      -nan      -nan      -nan      -nan 
dram[14]:      -nan      -nan      -nan      -nan      -nan      -nan      -nan      -nan      -nan      -nan      -nan      -nan      -nan      -nan      -nan      -nan 
dram[15]:      -nan      -nan      -nan      -nan      -nan      -nan      -nan      -nan      -nan      -nan      -nan      -nan      -nan      -nan      -nan      -nan 
dram[16]:      -nan      -nan      -nan      -nan      -nan      -nan      -nan      -nan      -nan      -nan      -nan      -nan      -nan      -nan      -nan      -nan 
dram[17]:      -nan      -nan      -nan      -nan      -nan      -nan      -nan      -nan      -nan      -nan      -nan      -nan      -nan      -nan      -nan      -nan 
dram[18]:      -nan      -nan      -nan      -nan      -nan      -nan      -nan      -nan      -nan      -nan      -nan      -nan      -nan      -nan      -nan      -nan 
dram[19]:      -nan      -nan      -nan      -nan      -nan      -nan      -nan      -nan      -nan      -nan      -nan      -nan      -nan      -nan      -nan      -nan 
dram[20]:      -nan      -nan      -nan      -nan      -nan      -nan      -nan      -nan      -nan      -nan      -nan      -nan      -nan      -nan      -nan      -nan 
dram[21]:      -nan      -nan      -nan      -nan      -nan      -nan      -nan      -nan      -nan      -nan      -nan      -nan      -nan      -nan      -nan      -nan 
dram[22]:      -nan      -nan      -nan      -nan      -nan      -nan      -nan      -nan      -nan      -nan      -nan      -nan      -nan      -nan      -nan      -nan 
dram[23]:      -nan      -nan      -nan      -nan      -nan      -nan      -nan      -nan      -nan      -nan      -nan      -nan      -nan      -nan      -nan      -nan 
dram[24]:      -nan      -nan      -nan      -nan      -nan      -nan      -nan      -nan      -nan      -nan      -nan      -nan      -nan      -nan      -nan      -nan 
dram[25]:      -nan      -nan      -nan      -nan      -nan      -nan      -nan      -nan      -nan      -nan      -nan      -nan      -nan      -nan      -nan      -nan 
dram[26]:      -nan      -nan      -nan      -nan      -nan      -nan      -nan      -nan      -nan      -nan      -nan      -nan      -nan      -nan      -nan      -nan 
dram[27]:      -nan      -nan      -nan      -nan      -nan      -nan      -nan      -nan      -nan      -nan      -nan      -nan      -nan      -nan      -nan      -nan 
dram[28]:      -nan      -nan      -nan      -nan      -nan      -nan      -nan      -nan      -nan      -nan      -nan      -nan      -nan      -nan      -nan      -nan 
dram[29]:      -nan      -nan      -nan      -nan      -nan      -nan      -nan      -nan      -nan      -nan      -nan      -nan      -nan      -nan      -nan      -nan 
dram[30]:      -nan      -nan      -nan      -nan      -nan      -nan      -nan      -nan      -nan      -nan      -nan      -nan      -nan      -nan      -nan      -nan 
dram[31]:      -nan      -nan      -nan      -nan      -nan      -nan      -nan      -nan      -nan      -nan      -nan      -nan      -nan      -nan      -nan      -nan 
average row locality = 0/0 = -nan
number of total memory accesses made:
dram[0]:         0         0         0         0         0         0         0         0         0         0         0         0         0         0         0         0 
dram[1]:         0         0         0         0         0         0         0         0         0         0         0         0         0         0         0         0 
dram[2]:         0         0         0         0         0         0         0         0         0         0         0         0         0         0         0         0 
dram[3]:         0         0         0         0         0         0         0         0         0         0         0         0         0         0         0         0 
dram[4]:         0         0         0         0         0         0         0         0         0         0         0         0         0         0         0         0 
dram[5]:         0         0         0         0         0         0         0         0         0         0         0         0         0         0         0         0 
dram[6]:         0         0         0         0         0         0         0         0         0         0         0         0         0         0         0         0 
dram[7]:         0         0         0         0         0         0         0         0         0         0         0         0         0         0         0         0 
dram[8]:         0         0         0         0         0         0         0         0         0         0         0         0         0         0         0         0 
[...]
Read = 3417 
Write = 0 
L2_Alloc = 0 
L2_WB = 2557 
n_act = 1281 
n_pre = 1265 
n_ref = 0 
n_req = 4080 
total_req = 5974 

Dual Bus Interface Util: 
issued_total_row = 2546 
issued_total_col = 5974 
Row_Bus_Util =  0.017823 
CoL_Bus_Util = 0.041820 
Either_Row_CoL_Bus_Util = 0.051670 
Issued_on_Two_Bus_Simul_Util = 0.007973 
issued_two_Eff = 0.154315 
queue_avg = 0.610718 


dram_util_bins: 0 0 0 0 0 0 0 0 0 0
dram_eff_bins: 0 0 0 0 0 0 0 0 0 0
mrqq: max=32 avg=0.610718
Memory Partition 28: 
Cache L2_bank_056:

Cache L2_bank_057:

In Dram Latency Queue (total = 9): 
DRAM[28]: 16 bks, busW=16 BL=2 CL=12, tRRD=3 tCCD=1, tRCD=12 tRAS=28 tRP=12 tRC=40
n_cmd=142850 n_nop=135455 n_act=1282 n_pre=1266 n_ref_event=0 n_req=4074 n_rd=3416 n_rd_L2_A=0 n_write=0 n_wr_bk=2540 bw_util=0.04169
n_activity=14885 dram_eff=0.4001
bk0: 194a 140029i bk1: 193a 139860i bk2: 193a 139596i bk3: 193a 139697i bk4: 249a 138603i bk5: 250a 138858i bk6: 258a 138562i bk7: 258a 138369i bk8: 233a 138939i bk9: 234a 138629i bk10: 193a 139712i bk11: 193a 139810i bk12: 194a 139944i bk13: 193a 139558i bk14: 194a 139587i bk15: 194a 140130i 

------------------------------------------------------------------------

Row_Buffer_Locality = 0.685322
Row_Buffer_Locality_read = 0.778396
Row_Buffer_Locality_write = 0.202128
Bank_Level_Parallism = 4.435205
Bank_Level_Parallism_Col = 3.197744
Bank_Level_Parallism_Ready = 1.680658
write_to_read_ratio_blp_rw_average = 0.490269
GrpLevelPara = 2.238677 

BW Util details:
bwutil = 0.041694 
total_CMD = 142850 
util_bw = 5956 
Wasted_Col = 5910 
Wasted_Row = 1615 
Idle = 129369 

BW Util Bottlenecks: 
RCDc_limit = 4372 
RCDWRc_limit = 2968 
WTRc_limit = 2251 
RTWc_limit = 5658 
CCDLc_limit = 3054 
rwq = 0 
CCDLc_limit_alone = 2514 
WTRc_limit_alone = 2060 
RTWc_limit_alone = 5309 

Commands details: 
total_CMD = 142850 
n_nop = 135455 
Read = 3416 
Write = 0 
L2_Alloc = 0 
L2_WB = 2540 
n_act = 1282 
n_pre = 1266 
n_ref = 0 
n_req = 4074 
total_req = 5956 

Dual Bus Interface Util: 
issued_total_row = 2548 
issued_total_col = 5956 
Row_Bus_Util =  0.017837 
CoL_Bus_Util = 0.041694 
Either_Row_CoL_Bus_Util = 0.051768 
Issued_on_Two_Bus_Simul_Util = 0.007763 
issued_two_Eff = 0.149966 
queue_avg = 0.664053 


dram_util_bins: 0 0 0 0 0 0 0 0 0 0
dram_eff_bins: 0 0 0 0 0 0 0 0 0 0
mrqq: max=49 avg=0.664053
Memory Partition 29: 
Cache L2_bank_058:

Cache L2_bank_059:

In Dram Latency Queue (total = 5): 
DRAM[29]: 16 bks, busW=16 BL=2 CL=12, tRRD=3 tCCD=1, tRCD=12 tRAS=28 tRP=12 tRC=40
n_cmd=142850 n_nop=135436 n_act=1316 n_pre=1300 n_ref_event=0 n_req=4071 n_rd=3417 n_rd_L2_A=0 n_write=0 n_wr_bk=2522 bw_util=0.04158
n_activity=15313 dram_eff=0.3878
bk0: 193a 140031i bk1: 194a 139659i bk2: 193a 139316i bk3: 193a 139651i bk4: 250a 139134i bk5: 250a 138338i bk6: 258a 138853i bk7: 257a 138156i bk8: 234a 139061i bk9: 234a 138877i bk10: 194a 139464i bk11: 194a 139413i bk12: 194a 139456i bk13: 193a 139491i bk14: 193a 139912i bk15: 193a 139902i 

------------------------------------------------------------------------

Row_Buffer_Locality = 0.676738
Row_Buffer_Locality_read = 0.772315
Row_Buffer_Locality_write = 0.177370
Bank_Level_Parallism = 4.414295
Bank_Level_Parallism_Col = 3.151417
Bank_Level_Parallism_Ready = 1.611551
write_to_read_ratio_blp_rw_average = 0.475566
GrpLevelPara = 2.203750 

BW Util details:
bwutil = 0.041575 
total_CMD = 142850 
util_bw = 5939 
Wasted_Col = 6235 
Wasted_Row = 1635 
Idle = 129041 

BW Util Bottlenecks: 
RCDc_limit = 4566 
RCDWRc_limit = 2934 
WTRc_limit = 2163 
RTWc_limit = 6123 
CCDLc_limit = 3154 
rwq = 0 
CCDLc_limit_alone = 2522 
WTRc_limit_alone = 1907 
RTWc_limit_alone = 5747 

Commands details: 
total_CMD = 142850 
n_nop = 135436 
Read = 3417 
Write = 0 
L2_Alloc = 0 
L2_WB = 2522 
n_act = 1316 
n_pre = 1300 
n_ref = 0 
n_req = 4071 
total_req = 5939 

Dual Bus Interface Util: 
issued_total_row = 2616 
issued_total_col = 5939 
Row_Bus_Util =  0.018313 
CoL_Bus_Util = 0.041575 
Either_Row_CoL_Bus_Util = 0.051901 
Issued_on_Two_Bus_Simul_Util = 0.007987 
issued_two_Eff = 0.153898 
queue_avg = 0.670718 


dram_util_bins: 0 0 0 0 0 0 0 0 0 0
dram_eff_bins: 0 0 0 0 0 0 0 0 0 0
mrqq: max=48 avg=0.670718
Memory Partition 30: 
Cache L2_bank_060:

Cache L2_bank_061:

In Dram Latency Queue (total = 5): 
DRAM[30]: 16 bks, busW=16 BL=2 CL=12, tRRD=3 tCCD=1, tRCD=12 tRAS=28 tRP=12 tRC=40
n_cmd=142850 n_nop=135404 n_act=1271 n_pre=1255 n_ref_event=0 n_req=4081 n_rd=3417 n_rd_L2_A=0 n_write=0 n_wr_bk=2560 bw_util=0.04184
n_activity=15175 dram_eff=0.3939
bk0: 193a 140061i bk1: 193a 139697i bk2: 194a 139457i bk3: 193a 139539i bk4: 250a 138765i bk5: 249a 138552i bk6: 258a 138340i bk7: 259a 138666i bk8: 235a 138971i bk9: 234a 138970i bk10: 193a 139508i bk11: 193a 139513i bk12: 193a 139866i bk13: 194a 139763i bk14: 193a 140133i bk15: 193a 140105i 

------------------------------------------------------------------------

Row_Buffer_Locality = 0.688557
Row_Buffer_Locality_read = 0.781680
Row_Buffer_Locality_write = 0.209337
Bank_Level_Parallism = 4.369517
Bank_Level_Parallism_Col = 3.156130
Bank_Level_Parallism_Ready = 1.569684
write_to_read_ratio_blp_rw_average = 0.479683
GrpLevelPara = 2.211862 

BW Util details:
bwutil = 0.041841 
total_CMD = 142850 
util_bw = 5977 
Wasted_Col = 6200 
Wasted_Row = 1503 
Idle = 129170 

BW Util Bottlenecks: 
RCDc_limit = 4522 
RCDWRc_limit = 2907 
WTRc_limit = 2216 
RTWc_limit = 6044 
CCDLc_limit = 3210 
rwq = 0 
CCDLc_limit_alone = 2613 
WTRc_limit_alone = 1952 
RTWc_limit_alone = 5711 

Commands details: 
total_CMD = 142850 
n_nop = 135404 
Read = 3417 
Write = 0 
L2_Alloc = 0 
L2_WB = 2560 
n_act = 1271 
n_pre = 1255 
n_ref = 0 
n_req = 4081 
total_req = 5977 

Dual Bus Interface Util: 
issued_total_row = 2526 
issued_total_col = 5977 
Row_Bus_Util =  0.017683 
CoL_Bus_Util = 0.041841 
Either_Row_CoL_Bus_Util = 0.052125 
Issued_on_Two_Bus_Simul_Util = 0.007399 
issued_two_Eff = 0.141955 
queue_avg = 0.681540 


dram_util_bins: 0 0 0 0 0 0 0 0 0 0
dram_eff_bins: 0 0 0 0 0 0 0 0 0 0
mrqq: max=51 avg=0.68154
Memory Partition 31: 
Cache L2_bank_062:

Cache L2_bank_063:

In Dram Latency Queue (total = 4): 
DRAM[31]: 16 bks, busW=16 BL=2 CL=12, tRRD=3 tCCD=1, tRCD=12 tRAS=28 tRP=12 tRC=40
n_cmd=142850 n_nop=135485 n_act=1272 n_pre=1256 n_ref_event=0 n_req=4082 n_rd=3417 n_rd_L2_A=0 n_write=0 n_wr_bk=2570 bw_util=0.04191
n_activity=15304 dram_eff=0.3912
bk0: 193a 139689i bk1: 193a 139612i bk2: 193a 139387i bk3: 194a 139261i bk4: 250a 139074i bk5: 251a 139126i bk6: 258a 138623i bk7: 258a 138775i bk8: 233a 139113i bk9: 234a 138865i bk10: 194a 139631i bk11: 193a 139659i bk12: 193a 139742i bk13: 193a 139766i bk14: 194a 139759i bk15: 193a 139823i 

------------------------------------------------------------------------

Row_Buffer_Locality = 0.688388
Row_Buffer_Locality_read = 0.777583
Row_Buffer_Locality_write = 0.230075
Bank_Level_Parallism = 4.354385
Bank_Level_Parallism_Col = 3.147150
Bank_Level_Parallism_Ready = 1.648739
write_to_read_ratio_blp_rw_average = 0.466314
GrpLevelPara = 2.179971 

BW Util details:
bwutil = 0.041911 
total_CMD = 142850 
util_bw = 5987 
Wasted_Col = 6092 
Wasted_Row = 1649 
Idle = 129122 

BW Util Bottlenecks: 
RCDc_limit = 4266 
RCDWRc_limit = 2792 
WTRc_limit = 2452 
RTWc_limit = 5088 
CCDLc_limit = 2969 
rwq = 0 
CCDLc_limit_alone = 2466 
WTRc_limit_alone = 2193 
RTWc_limit_alone = 4844 

Commands details: 
total_CMD = 142850 
n_nop = 135485 
Read = 3417 
Write = 0 
L2_Alloc = 0 
L2_WB = 2570 
n_act = 1272 
n_pre = 1256 
n_ref = 0 
n_req = 4082 
total_req = 5987 

Dual Bus Interface Util: 
issued_total_row = 2528 
issued_total_col = 5987 
Row_Bus_Util =  0.017697 
CoL_Bus_Util = 0.041911 
Either_Row_CoL_Bus_Util = 0.051558 
Issued_on_Two_Bus_Simul_Util = 0.008050 
issued_two_Eff = 0.156144 
queue_avg = 0.679517 


dram_util_bins: 0 0 0 0 0 0 0 0 0 0
dram_eff_bins: 0 0 0 0 0 0 0 0 0 0
mrqq: max=40 avg=0.679517

========= L2 cache stats =========
L2_cache_bank[0]: Access = 39245, Miss = 31331, Miss_rate = 0.798, Pending_hits = 0, Reservation_fails = 0
L2_cache_bank[1]: Access = 37924, Miss = 31344, Miss_rate = 0.826, Pending_hits = 0, Reservation_fails = 0
L2_cache_bank[2]: Access = 39073, Miss = 31332, Miss_rate = 0.802, Pending_hits = 0, Reservation_fails = 0
L2_cache_bank[3]: Access = 38096, Miss = 31330, Miss_rate = 0.822, Pending_hits = 0, Reservation_fails = 0
L2_cache_bank[4]: Access = 39158, Miss = 31338, Miss_rate = 0.800, Pending_hits = 0, Reservation_fails = 0
L2_cache_bank[5]: Access = 38066, Miss = 31330, Miss_rate = 0.823, Pending_hits = 0, Reservation_fails = 0
L2_cache_bank[6]: Access = 38952, Miss = 31331, Miss_rate = 0.804, Pending_hits = 0, Reservation_fails = 0
L2_cache_bank[7]: Access = 37943, Miss = 31332, Miss_rate = 0.826, Pending_hits = 0, Reservation_fails = 0
L2_cache_bank[8]: Access = 38958, Miss = 31330, Miss_rate = 0.804, Pending_hits = 0, Reservation_fails = 0
L2_cache_bank[9]: Access = 37874, Miss = 31338, Miss_rate = 0.827, Pending_hits = 0, Reservation_fails = 0
L2_cache_bank[10]: Access = 39140, Miss = 31331, Miss_rate = 0.800, Pending_hits = 0, Reservation_fails = 0
L2_cache_bank[11]: Access = 37862, Miss = 31331, Miss_rate = 0.828, Pending_hits = 0, Reservation_fails = 0
L2_cache_bank[12]: Access = 37884, Miss = 31331, Miss_rate = 0.827, Pending_hits = 0, Reservation_fails = 0
L2_cache_bank[13]: Access = 37835, Miss = 31331, Miss_rate = 0.828, Pending_hits = 0, Reservation_fails = 0
L2_cache_bank[14]: Access = 37850, Miss = 31338, Miss_rate = 0.828, Pending_hits = 0, Reservation_fails = 0
L2_cache_bank[15]: Access = 37997, Miss = 31324, Miss_rate = 0.824, Pending_hits = 0, Reservation_fails = 0
L2_cache_bank[16]: Access = 37891, Miss = 31331, Miss_rate = 0.827, Pending_hits = 0, Reservation_fails = 0
L2_cache_bank[17]: Access = 37869, Miss = 31338, Miss_rate = 0.828, Pending_hits = 0, Reservation_fails = 0
L2_cache_bank[18]: Access = 37614, Miss = 31331, Miss_rate = 0.833, Pending_hits = 0, Reservation_fails = 0
L2_cache_bank[19]: Access = 37602, Miss = 31337, Miss_rate = 0.833, Pending_hits = 0, Reservation_fails = 0
L2_cache_bank[20]: Access = 37626, Miss = 31332, Miss_rate = 0.833, Pending_hits = 0, Reservation_fails = 0
L2_cache_bank[21]: Access = 37237, Miss = 31330, Miss_rate = 0.841, Pending_hits = 0, Reservation_fails = 0
L2_cache_bank[22]: Access = 37928, Miss = 31345, Miss_rate = 0.826, Pending_hits = 0, Reservation_fails = 0
L2_cache_bank[23]: Access = 37337, Miss = 31331, Miss_rate = 0.839, Pending_hits = 0, Reservation_fails = 0
L2_cache_bank[24]: Access = 38055, Miss = 31324, Miss_rate = 0.823, Pending_hits = 0, Reservation_fails = 0
L2_cache_bank[25]: Access = 37480, Miss = 31332, Miss_rate = 0.836, Pending_hits = 0, Reservation_fails = 0
L2_cache_bank[26]: Access = 37978, Miss = 31331, Miss_rate = 0.825, Pending_hits = 0, Reservation_fails = 0
L2_cache_bank[27]: Access = 37456, Miss = 31338, Miss_rate = 0.837, Pending_hits = 0, Reservation_fails = 0
L2_cache_bank[28]: Access = 37829, Miss = 31331, Miss_rate = 0.828, Pending_hits = 0, Reservation_fails = 0
L2_cache_bank[29]: Access = 37464, Miss = 31331, Miss_rate = 0.836, Pending_hits = 0, Reservation_fails = 0
L2_cache_bank[30]: Access = 37751, Miss = 31227, Miss_rate = 0.827, Pending_hits = 0, Reservation_fails = 0
L2_cache_bank[31]: Access = 37412, Miss = 31331, Miss_rate = 0.837, Pending_hits = 0, Reservation_fails = 0
L2_cache_bank[32]: Access = 37713, Miss = 31195, Miss_rate = 0.827, Pending_hits = 0, Reservation_fails = 0
L2_cache_bank[33]: Access = 37328, Miss = 31325, Miss_rate = 0.839, Pending_hits = 0, Reservation_fails = 0
L2_cache_bank[34]: Access = 38015, Miss = 31195, Miss_rate = 0.821, Pending_hits = 0, Reservation_fails = 0
L2_cache_bank[35]: Access = 37460, Miss = 31344, Miss_rate = 0.837, Pending_hits = 0, Reservation_fails = 0
L2_cache_bank[36]: Access = 37886, Miss = 31196, Miss_rate = 0.823, Pending_hits = 0, Reservation_fails = 0
L2_cache_bank[37]: Access = 37432, Miss = 31330, Miss_rate = 0.837, Pending_hits = 0, Reservation_fails = 0
L2_cache_bank[38]: Access = 37829, Miss = 31202, Miss_rate = 0.825, Pending_hits = 0, Reservation_fails = 0
L2_cache_bank[39]: Access = 37430, Miss = 31330, Miss_rate = 0.837, Pending_hits = 0, Reservation_fails = 0
L2_cache_bank[40]: Access = 37842, Miss = 31304, Miss_rate = 0.827, Pending_hits = 0, Reservation_fails = 0
L2_cache_bank[41]: Access = 37383, Miss = 31331, Miss_rate = 0.838, Pending_hits = 0, Reservation_fails = 0
L2_cache_bank[42]: Access = 37826, Miss = 31314, Miss_rate = 0.828, Pending_hits = 0, Reservation_fails = 0
L2_cache_bank[43]: Access = 37363, Miss = 31338, Miss_rate = 0.839, Pending_hits = 0, Reservation_fails = 0
L2_cache_bank[44]: Access = 38118, Miss = 31321, Miss_rate = 0.822, Pending_hits = 0, Reservation_fails = 0
L2_cache_bank[45]: Access = 37399, Miss = 31331, Miss_rate = 0.838, Pending_hits = 0, Reservation_fails = 0
L2_cache_bank[46]: Access = 38044, Miss = 31328, Miss_rate = 0.823, Pending_hits = 0, Reservation_fails = 0
L2_cache_bank[47]: Access = 37566, Miss = 31331, Miss_rate = 0.834, Pending_hits = 0, Reservation_fails = 0
L2_cache_bank[48]: Access = 37994, Miss = 31327, Miss_rate = 0.825, Pending_hits = 0, Reservation_fails = 0
L2_cache_bank[49]: Access = 37625, Miss = 31331, Miss_rate = 0.833, Pending_hits = 0, Reservation_fails = 0
L2_cache_bank[50]: Access = 37958, Miss = 31321, Miss_rate = 0.825, Pending_hits = 0, Reservation_fails = 0
L2_cache_bank[51]: Access = 37512, Miss = 31332, Miss_rate = 0.835, Pending_hits = 0, Reservation_fails = 0
L2_cache_bank[52]: Access = 37898, Miss = 31328, Miss_rate = 0.827, Pending_hits = 0, Reservation_fails = 0
L2_cache_bank[53]: Access = 37501, Miss = 31337, Miss_rate = 0.836, Pending_hits = 0, Reservation_fails = 0
L2_cache_bank[54]: Access = 38032, Miss = 31332, Miss_rate = 0.824, Pending_hits = 0, Reservation_fails = 0
L2_cache_bank[55]: Access = 37553, Miss = 31330, Miss_rate = 0.834, Pending_hits = 0, Reservation_fails = 0
L2_cache_bank[56]: Access = 38217, Miss = 31338, Miss_rate = 0.820, Pending_hits = 0, Reservation_fails = 0
L2_cache_bank[57]: Access = 37505, Miss = 31331, Miss_rate = 0.835, Pending_hits = 0, Reservation_fails = 0
L2_cache_bank[58]: Access = 38037, Miss = 31331, Miss_rate = 0.824, Pending_hits = 0, Reservation_fails = 0
L2_cache_bank[59]: Access = 37732, Miss = 31331, Miss_rate = 0.830, Pending_hits = 0, Reservation_fails = 0
L2_cache_bank[60]: Access = 38025, Miss = 31325, Miss_rate = 0.824, Pending_hits = 0, Reservation_fails = 0
L2_cache_bank[61]: Access = 37553, Miss = 31339, Miss_rate = 0.835, Pending_hits = 0, Reservation_fails = 0
L2_cache_bank[62]: Access = 37985, Miss = 31331, Miss_rate = 0.825, Pending_hits = 0, Reservation_fails = 0
L2_cache_bank[63]: Access = 37647, Miss = 31331, Miss_rate = 0.832, Pending_hits = 0, Reservation_fails = 0
L2_total_cache_accesses = 2423794
L2_total_cache_misses = 2004552
L2_total_cache_miss_rate = 0.8270
L2_total_cache_pending_hits = 0
L2_total_cache_reservation_fails = 0
L2_total_cache_breakdown:
	L2_cache_stats_breakdown[GLOBAL_ACC_R][HIT] = 357130
	L2_cache_stats_breakdown[GLOBAL_ACC_R][HIT_RESERVED] = 0
	L2_cache_stats_breakdown[GLOBAL_ACC_R][MISS] = 7693
	L2_cache_stats_breakdown[GLOBAL_ACC_R][RESERVATION_FAIL] = 0
	L2_cache_stats_breakdown[GLOBAL_ACC_R][SECTOR_MISS] = 101603
	L2_cache_stats_breakdown[LOCAL_ACC_R][HIT] = 0
	L2_cache_stats_breakdown[LOCAL_ACC_R][HIT_RESERVED] = 0
	L2_cache_stats_breakdown[LOCAL_ACC_R][MISS] = 0
	L2_cache_stats_breakdown[LOCAL_ACC_R][RESERVATION_FAIL] = 0
	L2_cache_stats_breakdown[LOCAL_ACC_R][SECTOR_MISS] = 0
	L2_cache_stats_breakdown[CONST_ACC_R][HIT] = 0
	L2_cache_stats_breakdown[CONST_ACC_R][HIT_RESERVED] = 0
	L2_cache_stats_breakdown[CONST_ACC_R][MISS] = 0
	L2_cache_stats_breakdown[CONST_ACC_R][RESERVATION_FAIL] = 0
	L2_cache_stats_breakdown[CONST_ACC_R][SECTOR_MISS] = 0
	L2_cache_stats_breakdown[TEXTURE_ACC_R][HIT] = 62112
	L2_cache_stats_breakdown[TEXTURE_ACC_R][HIT_RESERVED] = 0
	L2_cache_stats_breakdown[TEXTURE_ACC_R][MISS] = 0
	L2_cache_stats_breakdown[TEXTURE_ACC_R][RESERVATION_FAIL] = 0
	L2_cache_stats_breakdown[TEXTURE_ACC_R][SECTOR_MISS] = 0
	L2_cache_stats_breakdown[GLOBAL_ACC_W][HIT] = 0
	L2_cache_stats_breakdown[GLOBAL_ACC_W][HIT_RESERVED] = 0
	L2_cache_stats_breakdown[GLOBAL_ACC_W][MISS] = 62767
	L2_cache_stats_breakdown[GLOBAL_ACC_W][RESERVATION_FAIL] = 0
	L2_cache_stats_breakdown[GLOBAL_ACC_W][SECTOR_MISS] = 1832489
	L2_cache_stats_breakdown[LOCAL_ACC_W][HIT] = 0
	L2_cache_stats_breakdown[LOCAL_ACC_W][HIT_RESERVED] = 0
	L2_cache_stats_breakdown[LOCAL_ACC_W][MISS] = 0
	L2_cache_stats_breakdown[LOCAL_ACC_W][RESERVATION_FAIL] = 0
	L2_cache_stats_breakdown[LOCAL_ACC_W][SECTOR_MISS] = 0
	L2_cache_stats_breakdown[L1_WRBK_ACC][HIT] = 0
	L2_cache_stats_breakdown[L1_WRBK_ACC][HIT_RESERVED] = 0
	L2_cache_stats_breakdown[L1_WRBK_ACC][MISS] = 0
	L2_cache_stats_breakdown[L1_WRBK_ACC][RESERVATION_FAIL] = 0
	L2_cache_stats_breakdown[L1_WRBK_ACC][SECTOR_MISS] = 0
	L2_cache_stats_breakdown[L2_WRBK_ACC][HIT] = 0
	L2_cache_stats_breakdown[L2_WRBK_ACC][HIT_RESERVED] = 0
	L2_cache_stats_breakdown[L2_WRBK_ACC][MISS] = 0
	L2_cache_stats_breakdown[L2_WRBK_ACC][RESERVATION_FAIL] = 0
	L2_cache_stats_breakdown[L2_WRBK_ACC][SECTOR_MISS] = 0
	L2_cache_stats_breakdown[INST_ACC_R][HIT] = 0
	L2_cache_stats_breakdown[INST_ACC_R][HIT_RESERVED] = 0
	L2_cache_stats_breakdown[INST_ACC_R][MISS] = 0
	L2_cache_stats_breakdown[INST_ACC_R][RESERVATION_FAIL] = 0
	L2_cache_stats_breakdown[INST_ACC_R][SECTOR_MISS] = 0
	L2_cache_stats_breakdown[L1_WR_ALLOC_R][HIT] = 0
	L2_cache_stats_breakdown[L1_WR_ALLOC_R][HIT_RESERVED] = 0
	L2_cache_stats_breakdown[L1_WR_ALLOC_R][MISS] = 0
	L2_cache_stats_breakdown[L1_WR_ALLOC_R][RESERVATION_FAIL] = 0
	L2_cache_stats_breakdown[L1_WR_ALLOC_R][SECTOR_MISS] = 0
	L2_cache_stats_breakdown[L2_WR_ALLOC_R][HIT] = 0
	L2_cache_stats_breakdown[L2_WR_ALLOC_R][HIT_RESERVED] = 0
	L2_cache_stats_breakdown[L2_WR_ALLOC_R][MISS] = 0
	L2_cache_stats_breakdown[L2_WR_ALLOC_R][RESERVATION_FAIL] = 0
	L2_cache_stats_breakdown[L2_WR_ALLOC_R][SECTOR_MISS] = 0
	L2_cache_stats_breakdown[GLOBAL_ACC_R][TOTAL_ACCESS] = 466426
	L2_cache_stats_breakdown[TEXTURE_ACC_R][TOTAL_ACCESS] = 62112
	L2_cache_stats_breakdown[GLOBAL_ACC_W][TOTAL_ACCESS] = 1895256
L2_total_cache_reservation_fail_breakdown:
L2_cache_data_port_util = 0.039
L2_cache_fill_port_util = 0.009

icnt_total_pkts_mem_to_simt=2423794
icnt_total_pkts_simt_to_mem=2377210
LD_mem_lat_dist  0 0 0 0 0 0 0 0 0 0 0 0 0 0 0 0 0 0 0 0 0 0 0 0 0 0 0
ST_mem_lat_dist  0 0 0 0 0 0 0 0 0 0 0 0 0 0 0 0 0 0 0 0 0 0 0 0 0 0 0
----------------------------Interconnect-DETAILS--------------------------------
Req_Network_injected_packets_num = 2377210
Req_Network_cycles = 190244
Req_Network_injected_packets_per_cycle =      12.4956 
Req_Network_conflicts_per_cycle =       3.7888
Req_Network_conflicts_per_cycle_util =       4.2157
Req_Bank_Level_Parallism =      13.9037
Req_Network_in_buffer_full_per_cycle =       0.0000
Req_Network_in_buffer_avg_util =       3.6899
Req_Network_out_buffer_full_per_cycle =       0.0000
Req_Network_out_buffer_avg_util =       0.1952

Reply_Network_injected_packets_num = 2423794
Reply_Network_cycles = 190244
Reply_Network_injected_packets_per_cycle =       12.7404
Reply_Network_conflicts_per_cycle =        1.1825
Reply_Network_conflicts_per_cycle_util =       1.3075
Reply_Bank_Level_Parallism =      14.0876
Reply_Network_in_buffer_full_per_cycle =       0.0062
Reply_Network_in_buffer_avg_util =       2.2858
Reply_Network_out_buffer_full_per_cycle =       0.0000
Reply_Network_out_buffer_avg_util =       0.1593
----------------------------END-of-Interconnect-DETAILS-------------------------


gpgpu_simulation_time = 0 days, 0 hrs, 27 min, 47 sec (1667 sec)
gpgpu_simulation_rate = 146334 (inst/sec)
gpgpu_simulation_rate = 114 (cycle/sec)
gpgpu_silicon_slowdown = 9929824x
GPGPU-Sim: detected inactive GPU simulation thread
GPGPU-Sim: *** exit detected ***
