

        *** GPGPU-Sim Simulator Version 4.0.0  [build gpgpu-sim_git-commit-_modified_0.0] ***


GPGPU-Sim PTX: simulation mode 0 (can change with PTX_SIM_MODE_FUNC environment variable:
               1=functional simulation only, 0=detailed performance simulator)
GPGPU-Sim PTX: overriding embedded ptx with ptx file (PTX_SIM_USE_PTX_FILE is set)
GPGPU-Sim: Configuration options:

-save_embedded_ptx                      0 # saves ptx files embedded in binary as <n>.ptx
-keep                                   0 # keep intermediate files created by GPGPU-Sim when interfacing with external programs
-gpgpu_ptx_save_converted_ptxplus                    0 # Saved converted ptxplus to a file
-gpgpu_occupancy_sm_number                   70 # The SM number to pass to ptxas when getting register usage for computing GPU occupancy. This parameter is required in the config.
-ptx_opcode_latency_int      4,13,4,5,145,21 # Opcode latencies for integers <ADD,MAX,MUL,MAD,DIV,SHFL>Default 1,1,19,25,145,32
-ptx_opcode_latency_fp          4,13,4,5,39 # Opcode latencies for single precision floating points <ADD,MAX,MUL,MAD,DIV>Default 1,1,1,1,30
-ptx_opcode_latency_dp         8,19,8,8,330 # Opcode latencies for double precision floating points <ADD,MAX,MUL,MAD,DIV>Default 8,8,8,8,335
-ptx_opcode_latency_sfu                  100 # Opcode latencies for SFU instructionsDefault 8
-ptx_opcode_latency_tesnor                   64 # Opcode latencies for Tensor instructionsDefault 64
-ptx_opcode_initiation_int          2,2,2,2,8,4 # Opcode initiation intervals for integers <ADD,MAX,MUL,MAD,DIV,SHFL>Default 1,1,4,4,32,4
-ptx_opcode_initiation_fp            2,2,2,2,4 # Opcode initiation intervals for single precision floating points <ADD,MAX,MUL,MAD,DIV>Default 1,1,1,1,5
-ptx_opcode_initiation_dp          4,4,4,4,130 # Opcode initiation intervals for double precision floating points <ADD,MAX,MUL,MAD,DIV>Default 8,8,8,8,130
-ptx_opcode_initiation_sfu                    8 # Opcode initiation intervals for sfu instructionsDefault 8
-ptx_opcode_initiation_tensor                   64 # Opcode initiation intervals for tensor instructionsDefault 64
-cdp_latency         7200,8000,100,12000,1600 # CDP API latency <cudaStreamCreateWithFlags, cudaGetParameterBufferV2_init_perWarp, cudaGetParameterBufferV2_perKernel, cudaLaunchDeviceV2_init_perWarp, cudaLaunchDevicV2_perKernel>Default 7200,8000,100,12000,1600
-network_mode                           2 # Interconnection network mode
-inter_config_file                   mesh # Interconnection network config file
-icnt_in_buffer_limit                  512 # in_buffer_limit
-icnt_out_buffer_limit                  512 # out_buffer_limit
-icnt_subnets                           2 # subnets
-icnt_arbiter_algo                      1 # arbiter_algo
-icnt_verbose                           0 # inct_verbose
-icnt_grant_cycles                      1 # grant_cycles
-gpgpu_ptx_use_cuobjdump                    1 # Use cuobjdump to extract ptx and sass from binaries
-gpgpu_experimental_lib_support                    0 # Try to extract code from cuda libraries [Broken because of unknown cudaGetExportTable]
-checkpoint_option                      0 #  checkpointing flag (0 = no checkpoint)
-checkpoint_kernel                      1 #  checkpointing during execution of which kernel (1- 1st kernel)
-checkpoint_CTA                         0 #  checkpointing after # of CTA (< less than total CTA)
-resume_option                          0 #  resume flag (0 = no resume)
-resume_kernel                          0 #  Resume from which kernel (1= 1st kernel)
-resume_CTA                             0 #  resume from which CTA 
-checkpoint_CTA_t                       0 #  resume from which CTA 
-checkpoint_insn_Y                      0 #  resume from which CTA 
-gpgpu_ptx_convert_to_ptxplus                    0 # Convert SASS (native ISA) to ptxplus and run ptxplus
-gpgpu_ptx_force_max_capability                   70 # Force maximum compute capability
-gpgpu_ptx_inst_debug_to_file                    0 # Dump executed instructions' debug information to file
-gpgpu_ptx_inst_debug_file       inst_debug.txt # Executed instructions' debug output file
-gpgpu_ptx_inst_debug_thread_uid                    1 # Thread UID for executed instructions' debug output
-gpgpu_n_mem_for_l2wb_pcommit                   32 # number of memory modules (e.g. memory controllers) in gpu
-gpgpu_n_sub_partition_per_mchannel_for_l2wb_pcommit                    2 # number of memory subpartition in each memory module
-gpgpu_dl2_bsize_for_l2wb_pcommit                  128 # default 128 bytes
-gpgpu_simd_model                       1 # 1 = post-dominator
-gpgpu_shader_core_pipeline              2048:32 # shader core pipeline config, i.e., {<nthread>:<warpsize>}
-gpgpu_tex_cache:l1  N:4:128:256,L:R:m:N:L,T:512:8,128:2 # per-shader L1 texture cache  (READ-ONLY) config  {<nsets>:<bsize>:<assoc>,<rep>:<wr>:<alloc>:<wr_alloc>,<mshr>:<N>:<merge>,<mq>:<rf>}
-gpgpu_const_cache:l1 N:128:64:8,L:R:f:N:L,S:2:64,4 # per-shader L1 constant memory cache  (READ-ONLY) config  {<nsets>:<bsize>:<assoc>,<rep>:<wr>:<alloc>:<wr_alloc>,<mshr>:<N>:<merge>,<mq>} 
-gpgpu_cache:il1     N:64:128:16,L:R:f:N:L,S:2:48,4 # shader L1 instruction cache config  {<nsets>:<bsize>:<assoc>,<rep>:<wr>:<alloc>:<wr_alloc>,<mshr>:<N>:<merge>,<mq>} 
-gpgpu_cache:dl1     S:1:128:256,L:L:s:N:L,A:256:8,16:0,32 # per-shader L1 data cache config  {<nsets>:<bsize>:<assoc>,<rep>:<wr>:<alloc>:<wr_alloc>,<mshr>:<N>:<merge>,<mq> | none}
-gpgpu_l1_banks                         4 # The number of L1 cache banks
-gpgpu_l1_banks_byte_interleaving                   32 # l1 banks byte interleaving granularity
-gpgpu_l1_banks_hashing_function                    0 # l1 banks hashing function
-gpgpu_l1_latency                      20 # L1 Hit Latency
-gpgpu_smem_latency                    20 # smem Latency
-gpgpu_cache:dl1PrefL1                 none # per-shader L1 data cache config  {<nsets>:<bsize>:<assoc>,<rep>:<wr>:<alloc>:<wr_alloc>,<mshr>:<N>:<merge>,<mq> | none}
-gpgpu_cache:dl1PrefShared                 none # per-shader L1 data cache config  {<nsets>:<bsize>:<assoc>,<rep>:<wr>:<alloc>:<wr_alloc>,<mshr>:<N>:<merge>,<mq> | none}
-gpgpu_gmem_skip_L1D                    0 # global memory access skip L1D cache (implements -Xptxas -dlcm=cg, default=no skip)
-gpgpu_perfect_mem                      0 # enable perfect memory mode (no cache miss)
-n_regfile_gating_group                    4 # group of lanes that should be read/written together)
-gpgpu_clock_gated_reg_file                    0 # enable clock gated reg file for power calculations
-gpgpu_clock_gated_lanes                    0 # enable clock gated lanes for power calculations
-gpgpu_shader_registers                65536 # Number of registers per shader core. Limits number of concurrent CTAs. (default 8192)
-gpgpu_registers_per_block                65536 # Maximum number of registers per CTA. (default 8192)
-gpgpu_ignore_resources_limitation                    0 # gpgpu_ignore_resources_limitation (default 0)
-gpgpu_shader_cta                      32 # Maximum number of concurrent CTAs in shader (default 8)
-gpgpu_num_cta_barriers                   16 # Maximum number of named barriers per CTA (default 16)
-gpgpu_n_clusters                      80 # number of processing clusters
-gpgpu_n_cores_per_cluster                    1 # number of simd cores per cluster
-gpgpu_n_cluster_ejection_buffer_size                   32 # number of packets in ejection buffer
-gpgpu_n_ldst_response_buffer_size                    2 # number of response packets in ld/st unit ejection buffer
-gpgpu_shmem_per_block                65536 # Size of shared memory per thread block or CTA (default 48kB)
-gpgpu_shmem_size                   98304 # Size of shared memory per shader core (default 16kB)
-gpgpu_adaptive_cache_config            536870913 # adaptive_cache_config
-gpgpu_shmem_sizeDefault                98304 # Size of shared memory per shader core (default 16kB)
-gpgpu_shmem_size_PrefL1                16384 # Size of shared memory per shader core (default 16kB)
-gpgpu_shmem_size_PrefShared                16384 # Size of shared memory per shader core (default 16kB)
-gpgpu_shmem_num_banks                   32 # Number of banks in the shared memory in each shader core (default 16)
-gpgpu_shmem_limited_broadcast                    0 # Limit shared memory to do one broadcast per cycle (default on)
-gpgpu_shmem_warp_parts                    1 # Number of portions a warp is divided into for shared memory bank conflict check 
-gpgpu_mem_unit_ports                    1 # The number of memory transactions allowed per core cycle
-gpgpu_shmem_warp_parts                    1 # Number of portions a warp is divided into for shared memory bank conflict check 
-gpgpu_warpdistro_shader                   -1 # Specify which shader core to collect the warp size distribution from
-gpgpu_warp_issue_shader                    0 # Specify which shader core to collect the warp issue distribution from
-gpgpu_local_mem_map                    1 # Mapping from local memory space address to simulated GPU physical address space (default = enabled)
-gpgpu_num_reg_banks                   16 # Number of register banks (default = 8)
-gpgpu_reg_bank_use_warp_id                    0 # Use warp ID in mapping registers to banks (default = off)
-gpgpu_sub_core_model                    1 # Sub Core Volta/Pascal model (default = off)
-gpgpu_enable_specialized_operand_collector                    0 # enable_specialized_operand_collector
-gpgpu_operand_collector_num_units_sp                    4 # number of collector units (default = 4)
-gpgpu_operand_collector_num_units_dp                    0 # number of collector units (default = 0)
-gpgpu_operand_collector_num_units_sfu                    4 # number of collector units (default = 4)
-gpgpu_operand_collector_num_units_int                    0 # number of collector units (default = 0)
-gpgpu_operand_collector_num_units_tensor_core                    4 # number of collector units (default = 4)
-gpgpu_operand_collector_num_units_mem                    2 # number of collector units (default = 2)
-gpgpu_operand_collector_num_units_gen                    8 # number of collector units (default = 0)
-gpgpu_operand_collector_num_in_ports_sp                    1 # number of collector unit in ports (default = 1)
-gpgpu_operand_collector_num_in_ports_dp                    0 # number of collector unit in ports (default = 0)
-gpgpu_operand_collector_num_in_ports_sfu                    1 # number of collector unit in ports (default = 1)
-gpgpu_operand_collector_num_in_ports_int                    0 # number of collector unit in ports (default = 0)
-gpgpu_operand_collector_num_in_ports_tensor_core                    1 # number of collector unit in ports (default = 1)
-gpgpu_operand_collector_num_in_ports_mem                    1 # number of collector unit in ports (default = 1)
-gpgpu_operand_collector_num_in_ports_gen                    8 # number of collector unit in ports (default = 0)
-gpgpu_operand_collector_num_out_ports_sp                    1 # number of collector unit in ports (default = 1)
-gpgpu_operand_collector_num_out_ports_dp                    0 # number of collector unit in ports (default = 0)
-gpgpu_operand_collector_num_out_ports_sfu                    1 # number of collector unit in ports (default = 1)
-gpgpu_operand_collector_num_out_ports_int                    0 # number of collector unit in ports (default = 0)
-gpgpu_operand_collector_num_out_ports_tensor_core                    1 # number of collector unit in ports (default = 1)
-gpgpu_operand_collector_num_out_ports_mem                    1 # number of collector unit in ports (default = 1)
-gpgpu_operand_collector_num_out_ports_gen                    8 # number of collector unit in ports (default = 0)
-gpgpu_coalesce_arch                   60 # Coalescing arch (GT200 = 13, Fermi = 20)
-gpgpu_num_sched_per_core                    4 # Number of warp schedulers per core
-gpgpu_max_insn_issue_per_warp                    1 # Max number of instructions that can be issued per warp in one cycle by scheduler (either 1 or 2)
-gpgpu_dual_issue_diff_exec_units                    1 # should dual issue use two different execution unit resources (Default = 1)
-gpgpu_simt_core_sim_order                    1 # Select the simulation order of cores in a cluster (0=Fix, 1=Round-Robin)
-gpgpu_pipeline_widths 4,4,4,4,4,4,4,4,4,4,8,4,4 # Pipeline widths ID_OC_SP,ID_OC_DP,ID_OC_INT,ID_OC_SFU,ID_OC_MEM,OC_EX_SP,OC_EX_DP,OC_EX_INT,OC_EX_SFU,OC_EX_MEM,EX_WB,ID_OC_TENSOR_CORE,OC_EX_TENSOR_CORE
-gpgpu_tensor_core_avail                    1 # Tensor Core Available (default=0)
-gpgpu_num_sp_units                     4 # Number of SP units (default=1)
-gpgpu_num_dp_units                     4 # Number of DP units (default=0)
-gpgpu_num_int_units                    4 # Number of INT units (default=0)
-gpgpu_num_sfu_units                    4 # Number of SF units (default=1)
-gpgpu_num_tensor_core_units                    4 # Number of tensor_core units (default=1)
-gpgpu_num_mem_units                    1 # Number if ldst units (default=1) WARNING: not hooked up to anything
-gpgpu_scheduler                      gto # Scheduler configuration: < lrr | gto | two_level_active > If two_level_active:<num_active_warps>:<inner_prioritization>:<outer_prioritization>For complete list of prioritization values see shader.h enum scheduler_prioritization_typeDefault: gto
-gpgpu_concurrent_kernel_sm                    0 # Support concurrent kernels on a SM (default = disabled)
-gpgpu_perfect_inst_const_cache                    1 # perfect inst and const cache mode, so all inst and const hits in the cache(default = disabled)
-gpgpu_inst_fetch_throughput                    4 # the number of fetched intruction per warp each cycle
-gpgpu_reg_file_port_throughput                    2 # the number ports of the register file
-specialized_unit_1         0,4,4,4,4,BRA # specialized unit config {<enabled>,<num_units>:<latency>:<initiation>,<ID_OC_SPEC>:<OC_EX_SPEC>,<NAME>}
-specialized_unit_2         0,4,4,4,4,BRA # specialized unit config {<enabled>,<num_units>:<latency>:<initiation>,<ID_OC_SPEC>:<OC_EX_SPEC>,<NAME>}
-specialized_unit_3         0,4,4,4,4,BRA # specialized unit config {<enabled>,<num_units>:<latency>:<initiation>,<ID_OC_SPEC>:<OC_EX_SPEC>,<NAME>}
-specialized_unit_4         0,4,4,4,4,BRA # specialized unit config {<enabled>,<num_units>:<latency>:<initiation>,<ID_OC_SPEC>:<OC_EX_SPEC>,<NAME>}
-specialized_unit_5         0,4,4,4,4,BRA # specialized unit config {<enabled>,<num_units>:<latency>:<initiation>,<ID_OC_SPEC>:<OC_EX_SPEC>,<NAME>}
-specialized_unit_6         0,4,4,4,4,BRA # specialized unit config {<enabled>,<num_units>:<latency>:<initiation>,<ID_OC_SPEC>:<OC_EX_SPEC>,<NAME>}
-specialized_unit_7         0,4,4,4,4,BRA # specialized unit config {<enabled>,<num_units>:<latency>:<initiation>,<ID_OC_SPEC>:<OC_EX_SPEC>,<NAME>}
-specialized_unit_8         0,4,4,4,4,BRA # specialized unit config {<enabled>,<num_units>:<latency>:<initiation>,<ID_OC_SPEC>:<OC_EX_SPEC>,<NAME>}
-gpgpu_perf_sim_memcpy                    1 # Fill the L2 cache on memcpy
-gpgpu_simple_dram_model                    0 # simple_dram_model with fixed latency and BW
-gpgpu_dram_scheduler                    1 # 0 = fifo, 1 = FR-FCFS (defaul)
-gpgpu_dram_partition_queues          64:64:64:64 # i2$:$2d:d2$:$2i
-l2_ideal                               0 # Use a ideal L2 cache that always hit
-gpgpu_cache:dl2     S:32:128:24,L:B:m:L:P,A:192:4,32:0,32 # unified banked L2 data cache config  {<nsets>:<bsize>:<assoc>,<rep>:<wr>:<alloc>:<wr_alloc>,<mshr>:<N>:<merge>,<mq>}
-gpgpu_cache:dl2_texture_only                    0 # L2 cache used for texture only
-gpgpu_n_mem                           32 # number of memory modules (e.g. memory controllers) in gpu
-gpgpu_n_sub_partition_per_mchannel                    2 # number of memory subpartition in each memory module
-gpgpu_n_mem_per_ctrlr                    1 # number of memory chips per memory controller
-gpgpu_memlatency_stat                   14 # track and display latency statistics 0x2 enables MC, 0x4 enables queue logs
-gpgpu_frfcfs_dram_sched_queue_size                   64 # 0 = unlimited (default); # entries per chip
-gpgpu_dram_return_queue_size                  192 # 0 = unlimited (default); # entries per chip
-gpgpu_dram_buswidth                   16 # default = 4 bytes (8 bytes per cycle at DDR)
-gpgpu_dram_burst_length                    2 # Burst length of each DRAM request (default = 4 data bus cycle)
-dram_data_command_freq_ratio                    2 # Frequency ratio between DRAM data bus and command bus (default = 2 times, i.e. DDR)
-gpgpu_dram_timing_opt nbk=16:CCD=1:RRD=3:RCD=12:RAS=28:RP=12:RC=40: CL=12:WL=2:CDLR=3:WR=10:nbkgrp=4:CCDL=2:RTPL=3 # DRAM timing parameters = {nbk:tCCD:tRRD:tRCD:tRAS:tRP:tRC:CL:WL:tCDLR:tWR:nbkgrp:tCCDL:tRTPL}
-gpgpu_l2_rop_latency                  160 # ROP queue latency (default 85)
-dram_latency                         150 # DRAM latency (default 30)
-dram_write_latency                   150 # DRAM write latency (default 100)
-dram_dual_bus_interface                    1 # dual_bus_interface (default = 0) 
-dram_bnk_indexing_policy                    0 # dram_bnk_indexing_policy (0 = normal indexing, 1 = Xoring with the higher bits) (Default = 0)
-dram_bnkgrp_indexing_policy                    1 # dram_bnkgrp_indexing_policy (0 = take higher bits, 1 = take lower bits) (Default = 0)
-dram_seperate_write_queue_enable                    0 # Seperate_Write_Queue_Enable
-dram_write_queue_size             32:28:16 # Write_Queue_Size
-dram_elimnate_rw_turnaround                    0 # elimnate_rw_turnaround i.e set tWTR and tRTW = 0
-icnt_flit_size                        40 # icnt_flit_size
-gpgpu_mem_addr_mapping dramid@8;00000000.00000000.00000000.00000000.0000RRRR.RRRRRRRR.RBBBCCCB.CCCSSSSS # mapping memory address to dram model {dramid@<start bit>;<memory address map>}
-gpgpu_mem_addr_test                    0 # run sweep test to check address mapping for aliased address
-gpgpu_mem_address_mask                    1 # 0 = old addressing mask, 1 = new addressing mask, 2 = new add. mask + flipped bank sel and chip sel bits
-gpgpu_memory_partition_indexing                    0 # 0 = no indexing, 1 = bitwise xoring, 2 = IPoly, 3 = custom indexing
-gpuwattch_xml_file         gpuwattch.xml # GPUWattch XML file
-power_simulation_enabled                    0 # Turn on power simulator (1=On, 0=Off)
-power_per_cycle_dump                    0 # Dump detailed power output each cycle
-power_trace_enabled                    0 # produce a file for the power trace (1=On, 0=Off)
-power_trace_zlevel                     6 # Compression level of the power trace output log (0=no comp, 9=highest)
-steady_power_levels_enabled                    0 # produce a file for the steady power levels (1=On, 0=Off)
-steady_state_definition                  8:4 # allowed deviation:number of samples
-gpgpu_max_cycle                        0 # terminates gpu simulation early (0 = no limit)
-gpgpu_max_insn                         0 # terminates gpu simulation early (0 = no limit)
-gpgpu_max_cta                          0 # terminates gpu simulation early (0 = no limit)
-gpgpu_max_completed_cta                    0 # terminates gpu simulation early (0 = no limit)
-gpgpu_runtime_stat                   500 # display runtime statistics such as dram utilization {<freq>:<flag>}
-liveness_message_freq                    1 # Minimum number of seconds between simulation liveness messages (0 = always print)
-gpgpu_compute_capability_major                    7 # Major compute capability version number
-gpgpu_compute_capability_minor                    0 # Minor compute capability version number
-gpgpu_flush_l1_cache                    1 # Flush L1 cache at the end of each kernel call
-gpgpu_flush_l2_cache                    0 # Flush L2 cache at the end of each kernel call
-gpgpu_deadlock_detect                    1 # Stop the simulation at deadlock (1=on (default), 0=off)
-gpgpu_ptx_instruction_classification                    0 # if enabled will classify ptx instruction types per kernel (Max 255 kernels now)
-gpgpu_ptx_sim_mode                     0 # Select between Performance (default) or Functional simulation (1)
-gpgpu_clock_domains 1132.0:1132.0:1132.0:850.0 # Clock Domain Frequencies in MhZ {<Core Clock>:<ICNT Clock>:<L2 Clock>:<DRAM Clock>}
-gpgpu_max_concurrent_kernel                    8 # maximum kernels that can run concurrently on GPU
-gpgpu_cflog_interval                    0 # Interval between each snapshot in control flow logger
-visualizer_enabled               5588de2b162a6fa64c546bb62460191f  /home/pli11/Desktop/re_test/ProgPow/ethash_calculate_dag_item/dram_base/main
Extracting PTX file and ptxas options    1: main.1.sm_70.ptx -arch=sm_70
      0 # Turn on visualizer output (1=On, 0=Off)
-visualizer_outputfile                 NULL # Specifies the output log file for visualizer
-visualizer_zlevel                      6 # Compression level of the visualizer output log (0=no comp, 9=highest)
-gpgpu_stack_size_limit                 1024 # GPU thread stack size
-gpgpu_heap_size_limit              8388608 # GPU malloc heap size 
-gpgpu_runtime_sync_depth_limit                    2 # GPU device runtime synchronize depth
-gpgpu_runtime_pending_launch_count_limit                 2048 # GPU device runtime pending launch count
-trace_enabled                          0 # Turn on traces
-trace_components                    none # comma seperated list of traces to enable. Complete list found in trace_streams.tup. Default none
-trace_sampling_core                    0 # The core which is printed using CORE_DPRINTF. Default 0
-trace_sampling_memory_partition                   -1 # The memory partition which is printed using MEMPART_DPRINTF. Default -1 (i.e. all)
-enable_ptx_file_line_stats                    1 # Turn on PTX source line statistic profiling. (1 = On)
-ptx_line_stats_filename gpgpu_inst_stats.txt # Output file for PTX source line statistics.
-gpgpu_kernel_launch_latency                 5000 # Kernel launch latency in cycles. Default: 0
-gpgpu_cdp_enabled                      0 # Turn on CDP
-gpgpu_TB_launch_latency                    0 # thread block launch latency in cycles. Default: 0
DRAM Timing Options:
nbk                                    16 # number of banks
CCD                                     1 # column to column delay
RRD                                     3 # minimal delay between activation of rows in different banks
RCD                                    12 # row to column delay
RAS                                    28 # time needed to activate row
RP                                     12 # time needed to precharge (deactivate) row
RC                                     40 # row cycle time
CDLR                                    3 # switching from write to read (changes tWTR)
WR                                     10 # last data-in to row precharge
CL                                     12 # CAS latency
WL                                      2 # Write latency
nbkgrp                                  4 # number of bank groups
CCDL                                    2 # column to column delay between accesses to different bank groups
RTPL                                    3 # read to precharge delay between accesses to different bank groups
Total number of memory sub partition = 64
addr_dec_mask[CHIP]  = 0000000000001f00 	high:13 low:8
addr_dec_mask[BK]    = 00000000000e2000 	high:20 low:13
addr_dec_mask[ROW]   = 00000001fff00000 	high:33 low:20
addr_dec_mask[COL]   = 000000000001c0ff 	high:17 low:0
addr_dec_mask[BURST] = 000000000000001f 	high:5 low:0
sub_partition_id_mask = 0000000000002000
GPGPU-Sim uArch: clock freqs: 1132000000.000000:1132000000.000000:1132000000.000000:850000000.000000
GPGPU-Sim uArch: clock periods: 0.00000000088339222615:0.00000000088339222615:0.00000000088339222615:0.00000000117647058824
*** Initializing Memory Statistics ***
GPGPU-Sim uArch: performance model initialization complete.
self exe links to: /home/pli11/Desktop/re_test/ProgPow/ethash_calculate_dag_item/dram_base/main
self exe links to: /home/pli11/Desktop/re_test/ProgPow/ethash_calculate_dag_item/dram_base/main
10.1
GPGPU-Sim PTX: __cudaRegisterFatBinary, fat_cubin_handle = 1, filename=default
self exe links to: /home/pli11/Desktop/re_test/ProgPow/ethash_calculate_dag_item/dram_base/main
Running md5sum using "md5sum /home/pli11/Desktop/re_test/ProgPow/ethash_calculate_dag_item/dram_base/main "
self exe links to: /home/pli11/Desktop/re_test/ProgPow/ethash_calculate_dag_item/dram_base/main
Extracting specific PTX file named main.1.sm_70.ptx 
GPGPU-Sim PTX: __cudaRegisterFunction _Z25ethash_calculate_dag_itemjP8hash64_tmS0_j : hostFun 0x0x4123e6, fat_cubin_handle = 1
GPGPU-Sim PTX: Parsing main.1.sm_70.ptx
GPGPU-Sim PTX: allocating constant region for "keccakf_rndc" from 0x100 to 0x1c0 (global memory space) 1
GPGPU-Sim PTX: allocating stack frame region for .local "__local_depot0" from 0x0 to 0x40
GPGPU-Sim PTX: instruction assembly for function '_Z25ethash_calculate_dag_itemjP8hash64_tmS0_j'...   done.
GPGPU-Sim PTX: finished parsing EMBEDDED .ptx file main.1.sm_70.ptx
GPGPU-Sim PTX: loading globals with explicit initializers... 
GPGPU-Sim PTX: finished loading globals (0 bytes total).
GPGPU-Sim PTX: loading constants with explicit initializers...  done.
GPGPU-Sim PTX: Loading PTXInfo from main.1.sm_70.ptx
GPGPU-Sim PTX: Binary info : gmem=0, cmem=192
GPGPU-Sim PTX: Kernel '_Z25ethash_calculate_dag_itemjP8hash64_tmS0_j' : regs=80, lmem=0, smem=0, cmem=388
GPGPU-Sim PTX: __cudaRegisterVar: hostVar = 0x41c440; deviceAddress = keccakf_rndc; deviceName = keccakf_rndc
GPGPU-Sim PTX: __cudaRegisterVar: Registering const memory space of 192 bytes
GPGPU-Sim PTX registering constant keccakf_rndc (192 bytes) to name mapping
Set Device to current
Resetting device
Allocating light with size: 16907456
Generating mining buffers
GPGPU-Sim PTX: cudaStreamCreate
GPGPU-Sim PTX: cudaStreamCreate
Generating DAG for GPU #0 with dagBytes: 1082130304 gridSize: 4
fullRuns=16512
GPGPU-Sim PTX: Setting up arguments for 4 bytes starting at 0x7ffcdd0fff4c..
GPGPU-Sim PTX: Setting up arguments for 8 bytes starting at 0x7ffcdd0fff40..
GPGPU-Sim PTX: Setting up arguments for 8 bytes starting at 0x7ffcdd0fff38..
GPGPU-Sim PTX: Setting up arguments for 8 bytes starting at 0x7ffcdd0fff30..
GPGPU-Sim PTX: Setting up arguments for 4 bytes starting at 0x7ffcdd0fff48..

GPGPU-Sim PTX: cudaLaunch for 0x0x4123e6 (mode=performance simulation) on stream 1
GPGPU-Sim PTX: finding reconvergence points for '_Z25ethash_calculate_dag_itemjP8hash64_tmS0_j'...
GPGPU-Sim PTX: Finding dominators for '_Z25ethash_calculate_dag_itemjP8hash64_tmS0_j'...
GPGPU-Sim PTX: Finding immediate dominators for '_Z25ethash_calculate_dag_itemjP8hash64_tmS0_j'...
GPGPU-Sim PTX: Finding postdominators for '_Z25ethash_calculate_dag_itemjP8hash64_tmS0_j'...
GPGPU-Sim PTX: Finding immediate postdominators for '_Z25ethash_calculate_dag_itemjP8hash64_tmS0_j'...
GPGPU-Sim PTX: pre-decoding instructions for '_Z25ethash_calculate_dag_itemjP8hash64_tmS0_j'...
GPGPU-Sim PTX: reconvergence points for _Z25ethash_calculate_dag_itemjP8hash64_tmS0_j...
GPGPU-Sim PTX:  1 (potential) branch divergence @  PC=0x088 (main.1.sm_70.ptx:49) @%p4097 bra BB0_2576;
GPGPU-Sim PTX:    immediate post dominator      @  PC=0x2ba30 (main.1.sm_70.ptx:26660) ret;
GPGPU-Sim PTX:  2 (potential) branch divergence @  PC=0x0a8 (main.1.sm_70.ptx:54) @%p4098 bra BB0_3;
GPGPU-Sim PTX:    immediate post dominator      @  PC=0x0e0 (main.1.sm_70.ptx:66) shl.b64 %rd6296, %rd7655, 6;
GPGPU-Sim PTX:  3 (potential) branch divergence @  PC=0x0b8 (main.1.sm_70.ptx:57) bra.uni BB0_4;
GPGPU-Sim PTX:    immediate post dominator      @  PC=0x0e0 (main.1.sm_70.ptx:66) shl.b64 %rd6296, %rd7655, 6;
GPGPU-Sim PTX:  4 (potential) branch divergence @  PC=0xa70 (main.1.sm_70.ptx:577) @%p4099 bra BB0_5;
GPGPU-Sim PTX:    immediate post dominator      @  PC=0xa78 (main.1.sm_70.ptx:579) mov.u32 %r24699, %tid.x;
GPGPU-Sim PTX:  5 (potential) branch divergence @  PC=0xb28 (main.1.sm_70.ptx:603) @%p4101 bra BB0_9;
GPGPU-Sim PTX:    immediate post dominator      @  PC=0xb90 (main.1.sm_70.ptx:619) shfl.sync.idx.b32 %r15|%p5, %r6066, %r6033, %r6063, %r6064;
GPGPU-Sim PTX:  6 (potential) branch divergence @  PC=0xbb0 (main.1.sm_70.ptx:623) @%p4101 bra BB0_11;
GPGPU-Sim PTX:    immediate post dominator      @  PC=0xc18 (main.1.sm_70.ptx:639) shfl.sync.idx.b32 %r19|%p9, %r6066, %r6043, %r6063, %r6064;
GPGPU-Sim PTX:  7 (potential) branch divergence @  PC=0xc38 (main.1.sm_70.ptx:643) @%p4101 bra BB0_13;
GPGPU-Sim PTX:    immediate post dominator      @  PC=0xca0 (main.1.sm_70.ptx:659) shfl.sync.idx.b32 %r23|%p13, %r6066, %r6034, %r6063, %r6064;
GPGPU-Sim PTX:  8 (potential) branch divergence @  PC=0xcc0 (main.1.sm_70.ptx:663) @%p4101 bra BB0_15;
GPGPU-Sim PTX:    immediate post dominator      @  PC=0xd28 (main.1.sm_70.ptx:679) add.s32 %r24722, %r24722, 1;
GPGPU-Sim PTX:  9 (potential) branch divergence @  PC=0xd38 (main.1.sm_70.ptx:681) @%p4105 bra BB0_7;
GPGPU-Sim PTX:    immediate post dominator      @  PC=0xd40 (main.1.sm_70.ptx:683) xor.b32 %r6129, %r6025, 1;
GPGPU-Sim PTX: 10 (potential) branch divergence @  PC=0xdc8 (main.1.sm_70.ptx:702) @%p4107 bra BB0_19;
GPGPU-Sim PTX:    immediate post dominator      @  PC=0xe30 (main.1.sm_70.ptx:718) shfl.sync.idx.b32 %r38|%p21, %r6138, %r6033, %r6063, %r6064;
GPGPU-Sim PTX: 11 (potential) branch divergence @  PC=0xe50 (main.1.sm_70.ptx:722) @%p4107 bra BB0_21;
GPGPU-Sim PTX:    immediate post dominator      @  PC=0xeb8 (main.1.sm_70.ptx:738) shfl.sync.idx.b32 %r42|%p25, %r6138, %r6043, %r6063, %r6064;
GPGPU-Sim PTX: 12 (potential) branch divergence @  PC=0xed8 (main.1.sm_70.ptx:742) @%p4107 bra BB0_23;
GPGPU-Sim PTX:    immediate post dominator      @  PC=0xf40 (main.1.sm_70.ptx:758) shfl.sync.idx.b32 %r46|%p29, %r6138, %r6034, %r6063, %r6064;
GPGPU-Sim PTX: 13 (potential) branch divergence @  PC=0xf60 (main.1.sm_70.ptx:762) @%p4107 bra BB0_25;
GPGPU-Sim PTX:    immediate post dominator      @  PC=0xfc8 (main.1.sm_70.ptx:778) add.s32 %r24723, %r24723, 1;
GPGPU-Sim PTX: 14 (potential) branch divergence @  PC=0xfd8 (main.1.sm_70.ptx:780) @%p4111 bra BB0_17;
GPGPU-Sim PTX:    immediate post dominator      @  PC=0xfe0 (main.1.sm_70.ptx:782) xor.b32 %r6201, %r6025, 2;
GPGPU-Sim PTX: 15 (potential) branch divergence @  PC=0x1068 (main.1.sm_70.ptx:801) @%p4113 bra BB0_29;
GPGPU-Sim PTX:    immediate post dominator      @  PC=0x10d0 (main.1.sm_70.ptx:817) shfl.sync.idx.b32 %r61|%p37, %r6210, %r6033, %r6063, %r6064;
GPGPU-Sim PTX: 16 (potential) branch divergence @  PC=0x10f0 (main.1.sm_70.ptx:821) @%p4113 bra BB0_31;
GPGPU-Sim PTX:    immediate post dominator      @  PC=0x1158 (main.1.sm_70.ptx:837) shfl.sync.idx.b32 %r65|%p41, %r6210, %r6043, %r6063, %r6064;
GPGPU-Sim PTX: 17 (potential) branch divergence @  PC=0x1178 (main.1.sm_70.ptx:841) @%p4113 bra BB0_33;
GPGPU-Sim PTX:    immediate post dominator      @  PC=0x11e0 (main.1.sm_70.ptx:857) shfl.sync.idx.b32 %r69|%p45, %r6210, %r6034, %r6063, %r6064;
GPGPU-Sim PTX: 18 (potential) branch divergence @  PC=0x1200 (main.1.sm_70.ptx:861) @%p4113 bra BB0_35;
GPGPU-Sim PTX:    immediate post dominator      @  PC=0x1268 (main.1.sm_70.ptx:877) add.s32 %r24724, %r24724, 1;
GPGPU-Sim PTX: 19 (potential) branch divergence @  PC=0x1278 (main.1.sm_70.ptx:879) @%p4117 bra BB0_27;
GPGPU-Sim PTX:    immediate post dominator      @  PC=0x1280 (main.1.sm_70.ptx:881) xor.b32 %r6273, %r6025, 3;
GPGPU-Sim PTX: 20 (potential) branch divergence @  PC=0x1308 (main.1.sm_70.ptx:900) @%p4119 bra BB0_39;
GPGPU-Sim PTX:    immediate post dominator      @  PC=0x1370 (main.1.sm_70.ptx:916) shfl.sync.idx.b32 %r84|%p53, %r6282, %r6033, %r6063, %r6064;
GPGPU-Sim PTX: 21 (potential) branch divergence @  PC=0x1390 (main.1.sm_70.ptx:920) @%p4119 bra BB0_41;
GPGPU-Sim PTX:    immediate post dominator      @  PC=0x13f8 (main.1.sm_70.ptx:936) shfl.sync.idx.b32 %r88|%p57, %r6282, %r6043, %r6063, %r6064;
GPGPU-Sim PTX: 22 (potential) branch divergence @  PC=0x1418 (main.1.sm_70.ptx:940) @%p4119 bra BB0_43;
GPGPU-Sim PTX:    immediate post dominator      @  PC=0x1480 (main.1.sm_70.ptx:956) shfl.sync.idx.b32 %r92|%p61, %r6282, %r6034, %r6063, %r6064;
GPGPU-Sim PTX: 23 (potential) branch divergence @  PC=0x14a0 (main.1.sm_70.ptx:960) @%p4119 bra BB0_45;
GPGPU-Sim PTX:    immediate post dominator      @  PC=0x1508 (main.1.sm_70.ptx:976) add.s32 %r24725, %r24725, 1;
GPGPU-Sim PTX: 24 (potential) branch divergence @  PC=0x1518 (main.1.sm_70.ptx:978) @%p4123 bra BB0_37;
GPGPU-Sim PTX:    immediate post dominator      @  PC=0x1520 (main.1.sm_70.ptx:980) xor.b32 %r6345, %r6025, 4;
GPGPU-Sim PTX: 25 (potential) branch divergence @  PC=0x15a8 (main.1.sm_70.ptx:999) @%p4125 bra BB0_49;
GPGPU-Sim PTX:    immediate post dominator      @  PC=0x1610 (main.1.sm_70.ptx:1015) shfl.sync.idx.b32 %r107|%p69, %r6354, %r6033, %r6063, %r6064;
GPGPU-Sim PTX: 26 (potential) branch divergence @  PC=0x1630 (main.1.sm_70.ptx:1019) @%p4125 bra BB0_51;
GPGPU-Sim PTX:    immediate post dominator      @  PC=0x1698 (main.1.sm_70.ptx:1035) shfl.sync.idx.b32 %r111|%p73, %r6354, %r6043, %r6063, %r6064;
GPGPU-Sim PTX: 27 (potential) branch divergence @  PC=0x16b8 (main.1.sm_70.ptx:1039) @%p4125 bra BB0_53;
GPGPU-Sim PTX:    immediate post dominator      @  PC=0x1720 (main.1.sm_70.ptx:1055) shfl.sync.idx.b32 %r115|%p77, %r6354, %r6034, %r6063, %r6064;
GPGPU-Sim PTX: 28 (potential) branch divergence @  PC=0x1740 (main.1.sm_70.ptx:1059) @%p4125 bra BB0_55;
GPGPU-Sim PTX:    immediate post dominator      @  PC=0x17a8 (main.1.sm_70.ptx:1075) add.s32 %r24726, %r24726, 1;
GPGPU-Sim PTX: 29 (potential) branch divergence @  PC=0x17b8 (main.1.sm_70.ptx:1077) @%p4129 bra BB0_47;
GPGPU-Sim PTX:    immediate post dominator      @  PC=0x17c0 (main.1.sm_70.ptx:1079) xor.b32 %r6417, %r6025, 5;
GPGPU-Sim PTX: 30 (potential) branch divergence @  PC=0x1848 (main.1.sm_70.ptx:1098) @%p4131 bra BB0_59;
GPGPU-Sim PTX:    immediate post dominator      @  PC=0x18b0 (main.1.sm_70.ptx:1114) shfl.sync.idx.b32 %r130|%p85, %r6426, %r6033, %r6063, %r6064;
GPGPU-Sim PTX: 31 (potential) branch divergence @  PC=0x18d0 (main.1.sm_70.ptx:1118) @%p4131 bra BB0_61;
GPGPU-Sim PTX:    immediate post dominator      @  PC=0x1938 (main.1.sm_70.ptx:1134) shfl.sync.idx.b32 %r134|%p89, %r6426, %r6043, %r6063, %r6064;
GPGPU-Sim PTX: 32 (potential) branch divergence @  PC=0x1958 (main.1.sm_70.ptx:1138) @%p4131 bra BB0_63;
GPGPU-Sim PTX:    immediate post dominator      @  PC=0x19c0 (main.1.sm_70.ptx:1154) shfl.sync.idx.b32 %r138|%p93, %r6426, %r6034, %r6063, %r6064;
GPGPU-Sim PTX: 33 (potential) branch divergence @  PC=0x19e0 (main.1.sm_70.ptx:1158) @%p4131 bra BB0_65;
GPGPU-Sim PTX:    immediate post dominator      @  PC=0x1a48 (main.1.sm_70.ptx:1174) add.s32 %r24727, %r24727, 1;
GPGPU-Sim PTX: 34 (potential) branch divergence @  PC=0x1a58 (main.1.sm_70.ptx:1176) @%p4135 bra BB0_57;
GPGPU-Sim PTX:    immediate post dominator      @  PC=0x1a60 (main.1.sm_70.ptx:1178) xor.b32 %r6489, %r6025, 6;
GPGPU-Sim PTX: 35 (potential) branch divergence @  PC=0x1ae8 (main.1.sm_70.ptx:1197) @%p4137 bra BB0_69;
GPGPU-Sim PTX:    immediate post dominator      @  PC=0x1b50 (main.1.sm_70.ptx:1213) shfl.sync.idx.b32 %r153|%p101, %r6498, %r6033, %r6063, %r6064;
GPGPU-Sim PTX: 36 (potential) branch divergence @  PC=0x1b70 (main.1.sm_70.ptx:1217) @%p4137 bra BB0_71;
GPGPU-Sim PTX:    immediate post dominator      @  PC=0x1bd8 (main.1.sm_70.ptx:1233) shfl.sync.idx.b32 %r157|%p105, %r6498, %r6043, %r6063, %r6064;
GPGPU-Sim PTX: 37 (potential) branch divergence @  PC=0x1bf8 (main.1.sm_70.ptx:1237) @%p4137 bra BB0_73;
GPGPU-Sim PTX:    immediate post dominator      @  PC=0x1c60 (main.1.sm_70.ptx:1253) shfl.sync.idx.b32 %r161|%p109, %r6498, %r6034, %r6063, %r6064;
GPGPU-Sim PTX: 38 (potential) branch divergence @  PC=0x1c80 (main.1.sm_70.ptx:1257) @%p4137 bra BB0_75;
GPGPU-Sim PTX:    immediate post dominator      @  PC=0x1ce8 (main.1.sm_70.ptx:1273) add.s32 %r24728, %r24728, 1;
GPGPU-Sim PTX: 39 (potential) branch divergence @  PC=0x1cf8 (main.1.sm_70.ptx:1275) @%p4141 bra BB0_67;
GPGPU-Sim PTX:    immediate post dominator      @  PC=0x1d00 (main.1.sm_70.ptx:1277) xor.b32 %r6561, %r6025, 7;
GPGPU-Sim PTX: 40 (potential) branch divergence @  PC=0x1d88 (main.1.sm_70.ptx:1296) @%p4143 bra BB0_79;
GPGPU-Sim PTX:    immediate post dominator      @  PC=0x1df0 (main.1.sm_70.ptx:1312) shfl.sync.idx.b32 %r176|%p117, %r6570, %r6033, %r6063, %r6064;
GPGPU-Sim PTX: 41 (potential) branch divergence @  PC=0x1e10 (main.1.sm_70.ptx:1316) @%p4143 bra BB0_81;
GPGPU-Sim PTX:    immediate post dominator      @  PC=0x1e78 (main.1.sm_70.ptx:1332) shfl.sync.idx.b32 %r180|%p121, %r6570, %r6043, %r6063, %r6064;
GPGPU-Sim PTX: 42 (potential) branch divergence @  PC=0x1e98 (main.1.sm_70.ptx:1336) @%p4143 bra BB0_83;
GPGPU-Sim PTX:    immediate post dominator      @  PC=0x1f00 (main.1.sm_70.ptx:1352) shfl.sync.idx.b32 %r184|%p125, %r6570, %r6034, %r6063, %r6064;
GPGPU-Sim PTX: 43 (potential) branch divergence @  PC=0x1f20 (main.1.sm_70.ptx:1356) @%p4143 bra BB0_85;
GPGPU-Sim PTX:    immediate post dominator      @  PC=0x1f88 (main.1.sm_70.ptx:1372) add.s32 %r24729, %r24729, 1;
GPGPU-Sim PTX: 44 (potential) branch divergence @  PC=0x1f98 (main.1.sm_70.ptx:1374) @%p4147 bra BB0_77;
GPGPU-Sim PTX:    immediate post dominator      @  PC=0x1fa0 (main.1.sm_70.ptx:1376) xor.b32 %r6633, %r6025, 8;
GPGPU-Sim PTX: 45 (potential) branch divergence @  PC=0x2028 (main.1.sm_70.ptx:1395) @%p4149 bra BB0_89;
GPGPU-Sim PTX:    immediate post dominator      @  PC=0x2090 (main.1.sm_70.ptx:1411) shfl.sync.idx.b32 %r199|%p133, %r6642, %r6033, %r6063, %r6064;
GPGPU-Sim PTX: 46 (potential) branch divergence @  PC=0x20b0 (main.1.sm_70.ptx:1415) @%p4149 bra BB0_91;
GPGPU-Sim PTX:    immediate post dominator      @  PC=0x2118 (main.1.sm_70.ptx:1431) shfl.sync.idx.b32 %r203|%p137, %r6642, %r6043, %r6063, %r6064;
GPGPU-Sim PTX: 47 (potential) branch divergence @  PC=0x2138 (main.1.sm_70.ptx:1435) @%p4149 bra BB0_93;
GPGPU-Sim PTX:    immediate post dominator      @  PC=0x21a0 (main.1.sm_70.ptx:1451) shfl.sync.idx.b32 %r207|%p141, %r6642, %r6034, %r6063, %r6064;
GPGPU-Sim PTX: 48 (potential) branch divergence @  PC=0x21c0 (main.1.sm_70.ptx:1455) @%p4149 bra BB0_95;
GPGPU-Sim PTX:    immediate post dominator      @  PC=0x2228 (main.1.sm_70.ptx:1471) add.s32 %r24730, %r24730, 1;
GPGPU-Sim PTX: 49 (potential) branch divergence @  PC=0x2238 (main.1.sm_70.ptx:1473) @%p4153 bra BB0_87;
GPGPU-Sim PTX:    immediate post dominator      @  PC=0x2240 (main.1.sm_70.ptx:1475) xor.b32 %r6705, %r6025, 9;
GPGPU-Sim PTX: 50 (potential) branch divergence @  PC=0x22c8 (main.1.sm_70.ptx:1494) @%p4155 bra BB0_99;
GPGPU-Sim PTX:    immediate post dominator      @  PC=0x2330 (main.1.sm_70.ptx:1510) shfl.sync.idx.b32 %r222|%p149, %r6714, %r6033, %r6063, %r6064;
GPGPU-Sim PTX: 51 (potential) branch divergence @  PC=0x2350 (main.1.sm_70.ptx:1514) @%p4155 bra BB0_101;
GPGPU-Sim PTX:    immediate post dominator      @  PC=0x23b8 (main.1.sm_70.ptx:1530) shfl.sync.idx.b32 %r226|%p153, %r6714, %r6043, %r6063, %r6064;
GPGPU-Sim PTX: 52 (potential) branch divergence @  PC=0x23d8 (main.1.sm_70.ptx:1534) @%p4155 bra BB0_103;
GPGPU-Sim PTX:    immediate post dominator      @  PC=0x2440 (main.1.sm_70.ptx:1550) shfl.sync.idx.b32 %r230|%p157, %r6714, %r6034, %r6063, %r6064;
GPGPU-Sim PTX: 53 (potential) branch divergence @  PC=0x2460 (main.1.sm_70.ptx:1554) @%p4155 bra BB0_105;
GPGPU-Sim PTX:    immediate post dominator      @  PC=0x24c8 (main.1.sm_70.ptx:1570) add.s32 %r24731, %r24731, 1;
GPGPU-Sim PTX: 54 (potential) branch divergence @  PC=0x24d8 (main.1.sm_70.ptx:1572) @%p4159 bra BB0_97;
GPGPU-Sim PTX:    immediate post dominator      @  PC=0x24e0 (main.1.sm_70.ptx:1574) xor.b32 %r6777, %r6025, 10;
GPGPU-Sim PTX: 55 (potential) branch divergence @  PC=0x2568 (main.1.sm_70.ptx:1593) @%p4161 bra BB0_109;
GPGPU-Sim PTX:    immediate post dominator      @  PC=0x25d0 (main.1.sm_70.ptx:1609) shfl.sync.idx.b32 %r245|%p165, %r6786, %r6033, %r6063, %r6064;
GPGPU-Sim PTX: 56 (potential) branch divergence @  PC=0x25f0 (main.1.sm_70.ptx:1613) @%p4161 bra BB0_111;
GPGPU-Sim PTX:    immediate post dominator      @  PC=0x2658 (main.1.sm_70.ptx:1629) shfl.sync.idx.b32 %r249|%p169, %r6786, %r6043, %r6063, %r6064;
GPGPU-Sim PTX: 57 (potential) branch divergence @  PC=0x2678 (main.1.sm_70.ptx:1633) @%p4161 bra BB0_113;
GPGPU-Sim PTX:    immediate post dominator      @  PC=0x26e0 (main.1.sm_70.ptx:1649) shfl.sync.idx.b32 %r253|%p173, %r6786, %r6034, %r6063, %r6064;
GPGPU-Sim PTX: 58 (potential) branch divergence @  PC=0x2700 (main.1.sm_70.ptx:1653) @%p4161 bra BB0_115;
GPGPU-Sim PTX:    immediate post dominator      @  PC=0x2768 (main.1.sm_70.ptx:1669) add.s32 %r24732, %r24732, 1;
GPGPU-Sim PTX: 59 (potential) branch divergence @  PC=0x2778 (main.1.sm_70.ptx:1671) @%p4165 bra BB0_107;
GPGPU-Sim PTX:    immediate post dominator      @  PC=0x2780 (main.1.sm_70.ptx:1673) xor.b32 %r6849, %r6025, 11;
GPGPU-Sim PTX: 60 (potential) branch divergence @  PC=0x2808 (main.1.sm_70.ptx:1692) @%p4167 bra BB0_119;
GPGPU-Sim PTX:    immediate post dominator      @  PC=0x2870 (main.1.sm_70.ptx:1708) shfl.sync.idx.b32 %r268|%p181, %r6858, %r6033, %r6063, %r6064;
GPGPU-Sim PTX: 61 (potential) branch divergence @  PC=0x2890 (main.1.sm_70.ptx:1712) @%p4167 bra BB0_121;
GPGPU-Sim PTX:    immediate post dominator      @  PC=0x28f8 (main.1.sm_70.ptx:1728) shfl.sync.idx.b32 %r272|%p185, %r6858, %r6043, %r6063, %r6064;
GPGPU-Sim PTX: 62 (potential) branch divergence @  PC=0x2918 (main.1.sm_70.ptx:1732) @%p4167 bra BB0_123;
GPGPU-Sim PTX:    immediate post dominator      @  PC=0x2980 (main.1.sm_70.ptx:1748) shfl.sync.idx.b32 %r276|%p189, %r6858, %r6034, %r6063, %r6064;
GPGPU-Sim PTX: 63 (potential) branch divergence @  PC=0x29a0 (main.1.sm_70.ptx:1752) @%p4167 bra BB0_125;
GPGPU-Sim PTX:    immediate post dominator      @  PC=0x2a08 (main.1.sm_70.ptx:1768) add.s32 %r24733, %r24733, 1;
GPGPU-Sim PTX: 64 (potential) branch divergence @  PC=0x2a18 (main.1.sm_70.ptx:1770) @%p4171 bra BB0_117;
GPGPU-Sim PTX:    immediate post dominator      @  PC=0x2a20 (main.1.sm_70.ptx:1772) xor.b32 %r6921, %r6025, 12;
GPGPU-Sim PTX: 65 (potential) branch divergence @  PC=0x2aa8 (main.1.sm_70.ptx:1791) @%p4173 bra BB0_129;
GPGPU-Sim PTX:    immediate post dominator      @  PC=0x2b10 (main.1.sm_70.ptx:1807) shfl.sync.idx.b32 %r291|%p197, %r6930, %r6033, %r6063, %r6064;
GPGPU-Sim PTX: 66 (potential) branch divergence @  PC=0x2b30 (main.1.sm_70.ptx:1811) @%p4173 bra BB0_131;
GPGPU-Sim PTX:    immediate post dominator      @  PC=0x2b98 (main.1.sm_70.ptx:1827) shfl.sync.idx.b32 %r295|%p201, %r6930, %r6043, %r6063, %r6064;
GPGPU-Sim PTX: 67 (potential) branch divergence @  PC=0x2bb8 (main.1.sm_70.ptx:1831) @%p4173 bra BB0_133;
GPGPU-Sim PTX:    immediate post dominator      @  PC=0x2c20 (main.1.sm_70.ptx:1847) shfl.sync.idx.b32 %r299|%p205, %r6930, %r6034, %r6063, %r6064;
GPGPU-Sim PTX: 68 (potential) branch divergence @  PC=0x2c40 (main.1.sm_70.ptx:1851) @%p4173 bra BB0_135;
GPGPU-Sim PTX:    immediate post dominator      @  PC=0x2ca8 (main.1.sm_70.ptx:1867) add.s32 %r24734, %r24734, 1;
GPGPU-Sim PTX: 69 (potential) branch divergence @  PC=0x2cb8 (main.1.sm_70.ptx:1869) @%p4177 bra BB0_127;
GPGPU-Sim PTX:    immediate post dominator      @  PC=0x2cc0 (main.1.sm_70.ptx:1871) xor.b32 %r6993, %r6025, 13;
GPGPU-Sim PTX: 70 (potential) branch divergence @  PC=0x2d48 (main.1.sm_70.ptx:1890) @%p4179 bra BB0_139;
GPGPU-Sim PTX:    immediate post dominator      @  PC=0x2db0 (main.1.sm_70.ptx:1906) shfl.sync.idx.b32 %r314|%p213, %r7002, %r6033, %r6063, %r6064;
GPGPU-Sim PTX: 71 (potential) branch divergence @  PC=0x2dd0 (main.1.sm_70.ptx:1910) @%p4179 bra BB0_141;
GPGPU-Sim PTX:    immediate post dominator      @  PC=0x2e38 (main.1.sm_70.ptx:1926) shfl.sync.idx.b32 %r318|%p217, %r7002, %r6043, %r6063, %r6064;
GPGPU-Sim PTX: 72 (potential) branch divergence @  PC=0x2e58 (main.1.sm_70.ptx:1930) @%p4179 bra BB0_143;
GPGPU-Sim PTX:    immediate post dominator      @  PC=0x2ec0 (main.1.sm_70.ptx:1946) shfl.sync.idx.b32 %r322|%p221, %r7002, %r6034, %r6063, %r6064;
GPGPU-Sim PTX: 73 (potential) branch divergence @  PC=0x2ee0 (main.1.sm_70.ptx:1950) @%p4179 bra BB0_145;
GPGPU-Sim PTX:    immediate post dominator      @  PC=0x2f48 (main.1.sm_70.ptx:1966) add.s32 %r24735, %r24735, 1;
GPGPU-Sim PTX: 74 (potential) branch divergence @  PC=0x2f58 (main.1.sm_70.ptx:1968) @%p4183 bra BB0_137;
GPGPU-Sim PTX:    immediate post dominator      @  PC=0x2f60 (main.1.sm_70.ptx:1970) xor.b32 %r7065, %r6025, 14;
GPGPU-Sim PTX: 75 (potential) branch divergence @  PC=0x2fe8 (main.1.sm_70.ptx:1989) @%p4185 bra BB0_149;
GPGPU-Sim PTX:    immediate post dominator      @  PC=0x3050 (main.1.sm_70.ptx:2005) shfl.sync.idx.b32 %r337|%p229, %r7074, %r6033, %r6063, %r6064;
GPGPU-Sim PTX: 76 (potential) branch divergence @  PC=0x3070 (main.1.sm_70.ptx:2009) @%p4185 bra BB0_151;
GPGPU-Sim PTX:    immediate post dominator      @  PC=0x30d8 (main.1.sm_70.ptx:2025) shfl.sync.idx.b32 %r341|%p233, %r7074, %r6043, %r6063, %r6064;
GPGPU-Sim PTX: 77 (potential) branch divergence @  PC=0x30f8 (main.1.sm_70.ptx:2029) @%p4185 bra BB0_153;
GPGPU-Sim PTX:    immediate post dominator      @  PC=0x3160 (main.1.sm_70.ptx:2045) shfl.sync.idx.b32 %r345|%p237, %r7074, %r6034, %r6063, %r6064;
GPGPU-Sim PTX: 78 (potential) branch divergence @  PC=0x3180 (main.1.sm_70.ptx:2049) @%p4185 bra BB0_155;
GPGPU-Sim PTX:    immediate post dominator      @  PC=0x31e8 (main.1.sm_70.ptx:2065) add.s32 %r24736, %r24736, 1;
GPGPU-Sim PTX: 79 (potential) branch divergence @  PC=0x31f8 (main.1.sm_70.ptx:2067) @%p4189 bra BB0_147;
GPGPU-Sim PTX:    immediate post dominator      @  PC=0x3200 (main.1.sm_70.ptx:2069) xor.b32 %r7137, %r6025, 15;
GPGPU-Sim PTX: 80 (potential) branch divergence @  PC=0x3288 (main.1.sm_70.ptx:2088) @%p4191 bra BB0_159;
GPGPU-Sim PTX:    immediate post dominator      @  PC=0x32f0 (main.1.sm_70.ptx:2104) shfl.sync.idx.b32 %r360|%p245, %r7146, %r6033, %r6063, %r6064;
GPGPU-Sim PTX: 81 (potential) branch divergence @  PC=0x3310 (main.1.sm_70.ptx:2108) @%p4191 bra BB0_161;
GPGPU-Sim PTX:    immediate post dominator      @  PC=0x3378 (main.1.sm_70.ptx:2124) shfl.sync.idx.b32 %r364|%p249, %r7146, %r6043, %r6063, %r6064;
GPGPU-Sim PTX: 82 (potential) branch divergence @  PC=0x3398 (main.1.sm_70.ptx:2128) @%p4191 bra BB0_163;
GPGPU-Sim PTX:    immediate post dominator      @  PC=0x3400 (main.1.sm_70.ptx:2144) shfl.sync.idx.b32 %r368|%p253, %r7146, %r6034, %r6063, %r6064;
GPGPU-Sim PTX: 83 (potential) branch divergence @  PC=0x3420 (main.1.sm_70.ptx:2148) @%p4191 bra BB0_165;
GPGPU-Sim PTX:    immediate post dominator      @  PC=0x3488 (main.1.sm_70.ptx:2164) add.s32 %r24737, %r24737, 1;
GPGPU-Sim PTX: 84 (potential) branch divergence @  PC=0x3498 (main.1.sm_70.ptx:2166) @%p4195 bra BB0_157;
GPGPU-Sim PTX:    immediate post dominator      @  PC=0x34a0 (main.1.sm_70.ptx:2168) xor.b32 %r7209, %r6025, 16;
GPGPU-Sim PTX: 85 (potential) branch divergence @  PC=0x3528 (main.1.sm_70.ptx:2187) @%p4197 bra BB0_169;
GPGPU-Sim PTX:    immediate post dominator      @  PC=0x3590 (main.1.sm_70.ptx:2203) shfl.sync.idx.b32 %r383|%p261, %r7218, %r6033, %r6063, %r6064;
GPGPU-Sim PTX: 86 (potential) branch divergence @  PC=0x35b0 (main.1.sm_70.ptx:2207) @%p4197 bra BB0_171;
GPGPU-Sim PTX:    immediate post dominator      @  PC=0x3618 (main.1.sm_70.ptx:2223) shfl.sync.idx.b32 %r387|%p265, %r7218, %r6043, %r6063, %r6064;
GPGPU-Sim PTX: 87 (potential) branch divergence @  PC=0x3638 (main.1.sm_70.ptx:2227) @%p4197 bra BB0_173;
GPGPU-Sim PTX:    immediate post dominator      @  PC=0x36a0 (main.1.sm_70.ptx:2243) shfl.sync.idx.b32 %r391|%p269, %r7218, %r6034, %r6063, %r6064;
GPGPU-Sim PTX: 88 (potential) branch divergence @  PC=0x36c0 (main.1.sm_70.ptx:2247) @%p4197 bra BB0_175;
GPGPU-Sim PTX:    immediate post dominator      @  PC=0x3728 (main.1.sm_70.ptx:2263) add.s32 %r24738, %r24738, 1;
GPGPU-Sim PTX: 89 (potential) branch divergence @  PC=0x3738 (main.1.sm_70.ptx:2265) @%p4201 bra BB0_167;
GPGPU-Sim PTX:    immediate post dominator      @  PC=0x3740 (main.1.sm_70.ptx:2267) xor.b32 %r7281, %r6025, 17;
GPGPU-Sim PTX: 90 (potential) branch divergence @  PC=0x37c8 (main.1.sm_70.ptx:2286) @%p4203 bra BB0_179;
GPGPU-Sim PTX:    immediate post dominator      @  PC=0x3830 (main.1.sm_70.ptx:2302) shfl.sync.idx.b32 %r406|%p277, %r7290, %r6033, %r6063, %r6064;
GPGPU-Sim PTX: 91 (potential) branch divergence @  PC=0x3850 (main.1.sm_70.ptx:2306) @%p4203 bra BB0_181;
GPGPU-Sim PTX:    immediate post dominator      @  PC=0x38b8 (main.1.sm_70.ptx:2322) shfl.sync.idx.b32 %r410|%p281, %r7290, %r6043, %r6063, %r6064;
GPGPU-Sim PTX: 92 (potential) branch divergence @  PC=0x38d8 (main.1.sm_70.ptx:2326) @%p4203 bra BB0_183;
GPGPU-Sim PTX:    immediate post dominator      @  PC=0x3940 (main.1.sm_70.ptx:2342) shfl.sync.idx.b32 %r414|%p285, %r7290, %r6034, %r6063, %r6064;
GPGPU-Sim PTX: 93 (potential) branch divergence @  PC=0x3960 (main.1.sm_70.ptx:2346) @%p4203 bra BB0_185;
GPGPU-Sim PTX:    immediate post dominator      @  PC=0x39c8 (main.1.sm_70.ptx:2362) add.s32 %r24739, %r24739, 1;
GPGPU-Sim PTX: 94 (potential) branch divergence @  PC=0x39d8 (main.1.sm_70.ptx:2364) @%p4207 bra BB0_177;
GPGPU-Sim PTX:    immediate post dominator      @  PC=0x39e0 (main.1.sm_70.ptx:2366) xor.b32 %r7353, %r6025, 18;
GPGPU-Sim PTX: 95 (potential) branch divergence @  PC=0x3a68 (main.1.sm_70.ptx:2385) @%p4209 bra BB0_189;
GPGPU-Sim PTX:    immediate post dominator      @  PC=0x3ad0 (main.1.sm_70.ptx:2401) shfl.sync.idx.b32 %r429|%p293, %r7362, %r6033, %r6063, %r6064;
GPGPU-Sim PTX: 96 (potential) branch divergence @  PC=0x3af0 (main.1.sm_70.ptx:2405) @%p4209 bra BB0_191;
GPGPU-Sim PTX:    immediate post dominator      @  PC=0x3b58 (main.1.sm_70.ptx:2421) shfl.sync.idx.b32 %r433|%p297, %r7362, %r6043, %r6063, %r6064;
GPGPU-Sim PTX: 97 (potential) branch divergence @  PC=0x3b78 (main.1.sm_70.ptx:2425) @%p4209 bra BB0_193;
GPGPU-Sim PTX:    immediate post dominator      @  PC=0x3be0 (main.1.sm_70.ptx:2441) shfl.sync.idx.b32 %r437|%p301, %r7362, %r6034, %r6063, %r6064;
GPGPU-Sim PTX: 98 (potential) branch divergence @  PC=0x3c00 (main.1.sm_70.ptx:2445) @%p4209 bra BB0_195;
GPGPU-Sim PTX:    immediate post dominator      @  PC=0x3c68 (main.1.sm_70.ptx:2461) add.s32 %r24740, %r24740, 1;
GPGPU-Sim PTX: 99 (potential) branch divergence @  PC=0x3c78 (main.1.sm_70.ptx:2463) @%p4213 bra BB0_187;
GPGPU-Sim PTX:    immediate post dominator      @  PC=0x3c80 (main.1.sm_70.ptx:2465) xor.b32 %r7425, %r6025, 19;
GPGPU-Sim PTX: 100 (potential) branch divergence @  PC=0x3d08 (main.1.sm_70.ptx:2484) @%p4215 bra BB0_199;
GPGPU-Sim PTX:    immediate post dominator      @  PC=0x3d70 (main.1.sm_70.ptx:2500) shfl.sync.idx.b32 %r452|%p309, %r7434, %r6033, %r6063, %r6064;
GPGPU-Sim PTX: 101 (potential) branch divergence @  PC=0x3d90 (main.1.sm_70.ptx:2504) @%p4215 bra BB0_201;
GPGPU-Sim PTX:    immediate post dominator      @  PC=0x3df8 (main.1.sm_70.ptx:2520) shfl.sync.idx.b32 %r456|%p313, %r7434, %r6043, %r6063, %r6064;
GPGPU-Sim PTX: 102 (potential) branch divergence @  PC=0x3e18 (main.1.sm_70.ptx:2524) @%p4215 bra BB0_203;
GPGPU-Sim PTX:    immediate post dominator      @  PC=0x3e80 (main.1.sm_70.ptx:2540) shfl.sync.idx.b32 %r460|%p317, %r7434, %r6034, %r6063, %r6064;
GPGPU-Sim PTX: 103 (potential) branch divergence @  PC=0x3ea0 (main.1.sm_70.ptx:2544) @%p4215 bra BB0_205;
GPGPU-Sim PTX:    immediate post dominator      @  PC=0x3f08 (main.1.sm_70.ptx:2560) add.s32 %r24741, %r24741, 1;
GPGPU-Sim PTX: 104 (potential) branch divergence @  PC=0x3f18 (main.1.sm_70.ptx:2562) @%p4219 bra BB0_197;
GPGPU-Sim PTX:    immediate post dominator      @  PC=0x3f20 (main.1.sm_70.ptx:2564) xor.b32 %r7497, %r6025, 20;
GPGPU-Sim PTX: 105 (potential) branch divergence @  PC=0x3fa8 (main.1.sm_70.ptx:2583) @%p4221 bra BB0_209;
GPGPU-Sim PTX:    immediate post dominator      @  PC=0x4010 (main.1.sm_70.ptx:2599) shfl.sync.idx.b32 %r475|%p325, %r7506, %r6033, %r6063, %r6064;
GPGPU-Sim PTX: 106 (potential) branch divergence @  PC=0x4030 (main.1.sm_70.ptx:2603) @%p4221 bra BB0_211;
GPGPU-Sim PTX:    immediate post dominator      @  PC=0x4098 (main.1.sm_70.ptx:2619) shfl.sync.idx.b32 %r479|%p329, %r7506, %r6043, %r6063, %r6064;
GPGPU-Sim PTX: 107 (potential) branch divergence @  PC=0x40b8 (main.1.sm_70.ptx:2623) @%p4221 bra BB0_213;
GPGPU-Sim PTX:    immediate post dominator      @  PC=0x4120 (main.1.sm_70.ptx:2639) shfl.sync.idx.b32 %r483|%p333, %r7506, %r6034, %r6063, %r6064;
GPGPU-Sim PTX: 108 (potential) branch divergence @  PC=0x4140 (main.1.sm_70.ptx:2643) @%p4221 bra BB0_215;
GPGPU-Sim PTX:    immediate post dominator      @  PC=0x41a8 (main.1.sm_70.ptx:2659) add.s32 %r24742, %r24742, 1;
GPGPU-Sim PTX: 109 (potential) branch divergence @  PC=0x41b8 (main.1.sm_70.ptx:2661) @%p4225 bra BB0_207;
GPGPU-Sim PTX:    immediate post dominator      @  PC=0x41c0 (main.1.sm_70.ptx:2663) xor.b32 %r7569, %r6025, 21;
GPGPU-Sim PTX: 110 (potential) branch divergence @  PC=0x4248 (main.1.sm_70.ptx:2682) @%p4227 bra BB0_219;
GPGPU-Sim PTX:    immediate post dominator      @  PC=0x42b0 (main.1.sm_70.ptx:2698) shfl.sync.idx.b32 %r498|%p341, %r7578, %r6033, %r6063, %r6064;
GPGPU-Sim PTX: 111 (potential) branch divergence @  PC=0x42d0 (main.1.sm_70.ptx:2702) @%p4227 bra BB0_221;
GPGPU-Sim PTX:    immediate post dominator      @  PC=0x4338 (main.1.sm_70.ptx:2718) shfl.sync.idx.b32 %r502|%p345, %r7578, %r6043, %r6063, %r6064;
GPGPU-Sim PTX: 112 (potential) branch divergence @  PC=0x4358 (main.1.sm_70.ptx:2722) @%p4227 bra BB0_223;
GPGPU-Sim PTX:    immediate post dominator      @  PC=0x43c0 (main.1.sm_70.ptx:2738) shfl.sync.idx.b32 %r506|%p349, %r7578, %r6034, %r6063, %r6064;
GPGPU-Sim PTX: 113 (potential) branch divergence @  PC=0x43e0 (main.1.sm_70.ptx:2742) @%p4227 bra BB0_225;
GPGPU-Sim PTX:    immediate post dominator      @  PC=0x4448 (main.1.sm_70.ptx:2758) add.s32 %r24743, %r24743, 1;
GPGPU-Sim PTX: 114 (potential) branch divergence @  PC=0x4458 (main.1.sm_70.ptx:2760) @%p4231 bra BB0_217;
GPGPU-Sim PTX:    immediate post dominator      @  PC=0x4460 (main.1.sm_70.ptx:2762) xor.b32 %r7641, %r6025, 22;
GPGPU-Sim PTX: 115 (potential) branch divergence @  PC=0x44e8 (main.1.sm_70.ptx:2781) @%p4233 bra BB0_229;
GPGPU-Sim PTX:    immediate post dominator      @  PC=0x4550 (main.1.sm_70.ptx:2797) shfl.sync.idx.b32 %r521|%p357, %r7650, %r6033, %r6063, %r6064;
GPGPU-Sim PTX: 116 (potential) branch divergence @  PC=0x4570 (main.1.sm_70.ptx:2801) @%p4233 bra BB0_231;
GPGPU-Sim PTX:    immediate post dominator      @  PC=0x45d8 (main.1.sm_70.ptx:2817) shfl.sync.idx.b32 %r525|%p361, %r7650, %r6043, %r6063, %r6064;
GPGPU-Sim PTX: 117 (potential) branch divergence @  PC=0x45f8 (main.1.sm_70.ptx:2821) @%p4233 bra BB0_233;
GPGPU-Sim PTX:    immediate post dominator      @  PC=0x4660 (main.1.sm_70.ptx:2837) shfl.sync.idx.b32 %r529|%p365, %r7650, %r6034, %r6063, %r6064;
GPGPU-Sim PTX: 118 (potential) branch divergence @  PC=0x4680 (main.1.sm_70.ptx:2841) @%p4233 bra BB0_235;
GPGPU-Sim PTX:    immediate post dominator      @  PC=0x46e8 (main.1.sm_70.ptx:2857) add.s32 %r24744, %r24744, 1;
GPGPU-Sim PTX: 119 (potential) branch divergence @  PC=0x46f8 (main.1.sm_70.ptx:2859) @%p4237 bra BB0_227;
GPGPU-Sim PTX:    immediate post dominator      @  PC=0x4700 (main.1.sm_70.ptx:2861) xor.b32 %r7713, %r6025, 23;
GPGPU-Sim PTX: 120 (potential) branch divergence @  PC=0x4788 (main.1.sm_70.ptx:2880) @%p4239 bra BB0_239;
GPGPU-Sim PTX:    immediate post dominator      @  PC=0x47f0 (main.1.sm_70.ptx:2896) shfl.sync.idx.b32 %r544|%p373, %r7722, %r6033, %r6063, %r6064;
GPGPU-Sim PTX: 121 (potential) branch divergence @  PC=0x4810 (main.1.sm_70.ptx:2900) @%p4239 bra BB0_241;
GPGPU-Sim PTX:    immediate post dominator      @  PC=0x4878 (main.1.sm_70.ptx:2916) shfl.sync.idx.b32 %r548|%p377, %r7722, %r6043, %r6063, %r6064;
GPGPU-Sim PTX: 122 (potential) branch divergence @  PC=0x4898 (main.1.sm_70.ptx:2920) @%p4239 bra BB0_243;
GPGPU-Sim PTX:    immediate post dominator      @  PC=0x4900 (main.1.sm_70.ptx:2936) shfl.sync.idx.b32 %r552|%p381, %r7722, %r6034, %r6063, %r6064;
GPGPU-Sim PTX: 123 (potential) branch divergence @  PC=0x4920 (main.1.sm_70.ptx:2940) @%p4239 bra BB0_245;
GPGPU-Sim PTX:    immediate post dominator      @  PC=0x4988 (main.1.sm_70.ptx:2956) add.s32 %r24745, %r24745, 1;
GPGPU-Sim PTX: 124 (potential) branch divergence @  PC=0x4998 (main.1.sm_70.ptx:2958) @%p4243 bra BB0_237;
GPGPU-Sim PTX:    immediate post dominator      @  PC=0x49a0 (main.1.sm_70.ptx:2960) xor.b32 %r7785, %r6025, 24;
GPGPU-Sim PTX: 125 (potential) branch divergence @  PC=0x4a28 (main.1.sm_70.ptx:2979) @%p4245 bra BB0_249;
GPGPU-Sim PTX:    immediate post dominator      @  PC=0x4a90 (main.1.sm_70.ptx:2995) shfl.sync.idx.b32 %r567|%p389, %r7794, %r6033, %r6063, %r6064;
GPGPU-Sim PTX: 126 (potential) branch divergence @  PC=0x4ab0 (main.1.sm_70.ptx:2999) @%p4245 bra BB0_251;
GPGPU-Sim PTX:    immediate post dominator      @  PC=0x4b18 (main.1.sm_70.ptx:3015) shfl.sync.idx.b32 %r571|%p393, %r7794, %r6043, %r6063, %r6064;
GPGPU-Sim PTX: 127 (potential) branch divergence @  PC=0x4b38 (main.1.sm_70.ptx:3019) @%p4245 bra BB0_253;
GPGPU-Sim PTX:    immediate post dominator      @  PC=0x4ba0 (main.1.sm_70.ptx:3035) shfl.sync.idx.b32 %r575|%p397, %r7794, %r6034, %r6063, %r6064;
GPGPU-Sim PTX: 128 (potential) branch divergence @  PC=0x4bc0 (main.1.sm_70.ptx:3039) @%p4245 bra BB0_255;
GPGPU-Sim PTX:    immediate post dominator      @  PC=0x4c28 (main.1.sm_70.ptx:3055) add.s32 %r24746, %r24746, 1;
GPGPU-Sim PTX: 129 (potential) branch divergence @  PC=0x4c38 (main.1.sm_70.ptx:3057) @%p4249 bra BB0_247;
GPGPU-Sim PTX:    immediate post dominator      @  PC=0x4c40 (main.1.sm_70.ptx:3059) xor.b32 %r7857, %r6025, 25;
GPGPU-Sim PTX: 130 (potential) branch divergence @  PC=0x4cc8 (main.1.sm_70.ptx:3078) @%p4251 bra BB0_259;
GPGPU-Sim PTX:    immediate post dominator      @  PC=0x4d30 (main.1.sm_70.ptx:3094) shfl.sync.idx.b32 %r590|%p405, %r7866, %r6033, %r6063, %r6064;
GPGPU-Sim PTX: 131 (potential) branch divergence @  PC=0x4d50 (main.1.sm_70.ptx:3098) @%p4251 bra BB0_261;
GPGPU-Sim PTX:    immediate post dominator      @  PC=0x4db8 (main.1.sm_70.ptx:3114) shfl.sync.idx.b32 %r594|%p409, %r7866, %r6043, %r6063, %r6064;
GPGPU-Sim PTX: 132 (potential) branch divergence @  PC=0x4dd8 (main.1.sm_70.ptx:3118) @%p4251 bra BB0_263;
GPGPU-Sim PTX:    immediate post dominator      @  PC=0x4e40 (main.1.sm_70.ptx:3134) shfl.sync.idx.b32 %r598|%p413, %r7866, %r6034, %r6063, %r6064;
GPGPU-Sim PTX: 133 (potential) branch divergence @  PC=0x4e60 (main.1.sm_70.ptx:3138) @%p4251 bra BB0_265;
GPGPU-Sim PTX:    immediate post dominator      @  PC=0x4ec8 (main.1.sm_70.ptx:3154) add.s32 %r24747, %r24747, 1;
GPGPU-Sim PTX: 134 (potential) branch divergence @  PC=0x4ed8 (main.1.sm_70.ptx:3156) @%p4255 bra BB0_257;
GPGPU-Sim PTX:    immediate post dominator      @  PC=0x4ee0 (main.1.sm_70.ptx:3158) xor.b32 %r7929, %r6025, 26;
GPGPU-Sim PTX: 135 (potential) branch divergence @  PC=0x4f68 (main.1.sm_70.ptx:3177) @%p4257 bra BB0_269;
GPGPU-Sim PTX:    immediate post dominator      @  PC=0x4fd0 (main.1.sm_70.ptx:3193) shfl.sync.idx.b32 %r613|%p421, %r7938, %r6033, %r6063, %r6064;
GPGPU-Sim PTX: 136 (potential) branch divergence @  PC=0x4ff0 (main.1.sm_70.ptx:3197) @%p4257 bra BB0_271;
GPGPU-Sim PTX:    immediate post dominator      @  PC=0x5058 (main.1.sm_70.ptx:3213) shfl.sync.idx.b32 %r617|%p425, %r7938, %r6043, %r6063, %r6064;
GPGPU-Sim PTX: 137 (potential) branch divergence @  PC=0x5078 (main.1.sm_70.ptx:3217) @%p4257 bra BB0_273;
GPGPU-Sim PTX:    immediate post dominator      @  PC=0x50e0 (main.1.sm_70.ptx:3233) shfl.sync.idx.b32 %r621|%p429, %r7938, %r6034, %r6063, %r6064;
GPGPU-Sim PTX: 138 (potential) branch divergence @  PC=0x5100 (main.1.sm_70.ptx:3237) @%p4257 bra BB0_275;
GPGPU-Sim PTX:    immediate post dominator      @  PC=0x5168 (main.1.sm_70.ptx:3253) add.s32 %r24748, %r24748, 1;
GPGPU-Sim PTX: 139 (potential) branch divergence @  PC=0x5178 (main.1.sm_70.ptx:3255) @%p4261 bra BB0_267;
GPGPU-Sim PTX:    immediate post dominator      @  PC=0x5180 (main.1.sm_70.ptx:3257) xor.b32 %r8001, %r6025, 27;
GPGPU-Sim PTX: 140 (potential) branch divergence @  PC=0x5208 (main.1.sm_70.ptx:3276) @%p4263 bra BB0_279;
GPGPU-Sim PTX:    immediate post dominator      @  PC=0x5270 (main.1.sm_70.ptx:3292) shfl.sync.idx.b32 %r636|%p437, %r8010, %r6033, %r6063, %r6064;
GPGPU-Sim PTX: 141 (potential) branch divergence @  PC=0x5290 (main.1.sm_70.ptx:3296) @%p4263 bra BB0_281;
GPGPU-Sim PTX:    immediate post dominator      @  PC=0x52f8 (main.1.sm_70.ptx:3312) shfl.sync.idx.b32 %r640|%p441, %r8010, %r6043, %r6063, %r6064;
GPGPU-Sim PTX: 142 (potential) branch divergence @  PC=0x5318 (main.1.sm_70.ptx:3316) @%p4263 bra BB0_283;
GPGPU-Sim PTX:    immediate post dominator      @  PC=0x5380 (main.1.sm_70.ptx:3332) shfl.sync.idx.b32 %r644|%p445, %r8010, %r6034, %r6063, %r6064;
GPGPU-Sim PTX: 143 (potential) branch divergence @  PC=0x53a0 (main.1.sm_70.ptx:3336) @%p4263 bra BB0_285;
GPGPU-Sim PTX:    immediate post dominator      @  PC=0x5408 (main.1.sm_70.ptx:3352) add.s32 %r24749, %r24749, 1;
GPGPU-Sim PTX: 144 (potential) branch divergence @  PC=0x5418 (main.1.sm_70.ptx:3354) @%p4267 bra BB0_277;
GPGPU-Sim PTX:    immediate post dominator      @  PC=0x5420 (main.1.sm_70.ptx:3356) xor.b32 %r8073, %r6025, 28;
GPGPU-Sim PTX: 145 (potential) branch divergence @  PC=0x54a8 (main.1.sm_70.ptx:3375) @%p4269 bra BB0_289;
GPGPU-Sim PTX:    immediate post dominator      @  PC=0x5510 (main.1.sm_70.ptx:3391) shfl.sync.idx.b32 %r659|%p453, %r8082, %r6033, %r6063, %r6064;
GPGPU-Sim PTX: 146 (potential) branch divergence @  PC=0x5530 (main.1.sm_70.ptx:3395) @%p4269 bra BB0_291;
GPGPU-Sim PTX:    immediate post dominator      @  PC=0x5598 (main.1.sm_70.ptx:3411) shfl.sync.idx.b32 %r663|%p457, %r8082, %r6043, %r6063, %r6064;
GPGPU-Sim PTX: 147 (potential) branch divergence @  PC=0x55b8 (main.1.sm_70.ptx:3415) @%p4269 bra BB0_293;
GPGPU-Sim PTX:    immediate post dominator      @  PC=0x5620 (main.1.sm_70.ptx:3431) shfl.sync.idx.b32 %r667|%p461, %r8082, %r6034, %r6063, %r6064;
GPGPU-Sim PTX: 148 (potential) branch divergence @  PC=0x5640 (main.1.sm_70.ptx:3435) @%p4269 bra BB0_295;
GPGPU-Sim PTX:    immediate post dominator      @  PC=0x56a8 (main.1.sm_70.ptx:3451) add.s32 %r24750, %r24750, 1;
GPGPU-Sim PTX: 149 (potential) branch divergence @  PC=0x56b8 (main.1.sm_70.ptx:3453) @%p4273 bra BB0_287;
GPGPU-Sim PTX:    immediate post dominator      @  PC=0x56c0 (main.1.sm_70.ptx:3455) xor.b32 %r8145, %r6025, 29;
GPGPU-Sim PTX: 150 (potential) branch divergence @  PC=0x5748 (main.1.sm_70.ptx:3474) @%p4275 bra BB0_299;
GPGPU-Sim PTX:    immediate post dominator      @  PC=0x57b0 (main.1.sm_70.ptx:3490) shfl.sync.idx.b32 %r682|%p469, %r8154, %r6033, %r6063, %r6064;
GPGPU-Sim PTX: 151 (potential) branch divergence @  PC=0x57d0 (main.1.sm_70.ptx:3494) @%p4275 bra BB0_301;
GPGPU-Sim PTX:    immediate post dominator      @  PC=0x5838 (main.1.sm_70.ptx:3510) shfl.sync.idx.b32 %r686|%p473, %r8154, %r6043, %r6063, %r6064;
GPGPU-Sim PTX: 152 (potential) branch divergence @  PC=0x5858 (main.1.sm_70.ptx:3514) @%p4275 bra BB0_303;
GPGPU-Sim PTX:    immediate post dominator      @  PC=0x58c0 (main.1.sm_70.ptx:3530) shfl.sync.idx.b32 %r690|%p477, %r8154, %r6034, %r6063, %r6064;
GPGPU-Sim PTX: 153 (potential) branch divergence @  PC=0x58e0 (main.1.sm_70.ptx:3534) @%p4275 bra BB0_305;
GPGPU-Sim PTX:    immediate post dominator      @  PC=0x5948 (main.1.sm_70.ptx:3550) add.s32 %r24751, %r24751, 1;
GPGPU-Sim PTX: 154 (potential) branch divergence @  PC=0x5958 (main.1.sm_70.ptx:3552) @%p4279 bra BB0_297;
GPGPU-Sim PTX:    immediate post dominator      @  PC=0x5960 (main.1.sm_70.ptx:3554) xor.b32 %r8217, %r6025, 30;
GPGPU-Sim PTX: 155 (potential) branch divergence @  PC=0x59e8 (main.1.sm_70.ptx:3573) @%p4281 bra BB0_309;
GPGPU-Sim PTX:    immediate post dominator      @  PC=0x5a50 (main.1.sm_70.ptx:3589) shfl.sync.idx.b32 %r705|%p485, %r8226, %r6033, %r6063, %r6064;
GPGPU-Sim PTX: 156 (potential) branch divergence @  PC=0x5a70 (main.1.sm_70.ptx:3593) @%p4281 bra BB0_311;
GPGPU-Sim PTX:    immediate post dominator      @  PC=0x5ad8 (main.1.sm_70.ptx:3609) shfl.sync.idx.b32 %r709|%p489, %r8226, %r6043, %r6063, %r6064;
GPGPU-Sim PTX: 157 (potential) branch divergence @  PC=0x5af8 (main.1.sm_70.ptx:3613) @%p4281 bra BB0_313;
GPGPU-Sim PTX:    immediate post dominator      @  PC=0x5b60 (main.1.sm_70.ptx:3629) shfl.sync.idx.b32 %r713|%p493, %r8226, %r6034, %r6063, %r6064;
GPGPU-Sim PTX: 158 (potential) branch divergence @  PC=0x5b80 (main.1.sm_70.ptx:3633) @%p4281 bra BB0_315;
GPGPU-Sim PTX:    immediate post dominator      @  PC=0x5be8 (main.1.sm_70.ptx:3649) add.s32 %r24752, %r24752, 1;
GPGPU-Sim PTX: 159 (potential) branch divergence @  PC=0x5bf8 (main.1.sm_70.ptx:3651) @%p4285 bra BB0_307;
GPGPU-Sim PTX:    immediate post dominator      @  PC=0x5c00 (main.1.sm_70.ptx:3653) xor.b32 %r8289, %r6025, 31;
GPGPU-Sim PTX: 160 (potential) branch divergence @  PC=0x5c88 (main.1.sm_70.ptx:3672) @%p4287 bra BB0_319;
GPGPU-Sim PTX:    immediate post dominator      @  PC=0x5cf0 (main.1.sm_70.ptx:3688) shfl.sync.idx.b32 %r728|%p501, %r8298, %r6033, %r6063, %r6064;
GPGPU-Sim PTX: 161 (potential) branch divergence @  PC=0x5d10 (main.1.sm_70.ptx:3692) @%p4287 bra BB0_321;
GPGPU-Sim PTX:    immediate post dominator      @  PC=0x5d78 (main.1.sm_70.ptx:3708) shfl.sync.idx.b32 %r732|%p505, %r8298, %r6043, %r6063, %r6064;
GPGPU-Sim PTX: 162 (potential) branch divergence @  PC=0x5d98 (main.1.sm_70.ptx:3712) @%p4287 bra BB0_323;
GPGPU-Sim PTX:    immediate post dominator      @  PC=0x5e00 (main.1.sm_70.ptx:3728) shfl.sync.idx.b32 %r736|%p509, %r8298, %r6034, %r6063, %r6064;
GPGPU-Sim PTX: 163 (potential) branch divergence @  PC=0x5e20 (main.1.sm_70.ptx:3732) @%p4287 bra BB0_325;
GPGPU-Sim PTX:    immediate post dominator      @  PC=0x5e88 (main.1.sm_70.ptx:3748) add.s32 %r24753, %r24753, 1;
GPGPU-Sim PTX: 164 (potential) branch divergence @  PC=0x5e98 (main.1.sm_70.ptx:3750) @%p4291 bra BB0_317;
GPGPU-Sim PTX:    immediate post dominator      @  PC=0x5ea0 (main.1.sm_70.ptx:3752) xor.b32 %r8361, %r6025, 32;
GPGPU-Sim PTX: 165 (potential) branch divergence @  PC=0x5f28 (main.1.sm_70.ptx:3771) @%p4293 bra BB0_329;
GPGPU-Sim PTX:    immediate post dominator      @  PC=0x5f90 (main.1.sm_70.ptx:3787) shfl.sync.idx.b32 %r751|%p517, %r8370, %r6033, %r6063, %r6064;
GPGPU-Sim PTX: 166 (potential) branch divergence @  PC=0x5fb0 (main.1.sm_70.ptx:3791) @%p4293 bra BB0_331;
GPGPU-Sim PTX:    immediate post dominator      @  PC=0x6018 (main.1.sm_70.ptx:3807) shfl.sync.idx.b32 %r755|%p521, %r8370, %r6043, %r6063, %r6064;
GPGPU-Sim PTX: 167 (potential) branch divergence @  PC=0x6038 (main.1.sm_70.ptx:3811) @%p4293 bra BB0_333;
GPGPU-Sim PTX:    immediate post dominator      @  PC=0x60a0 (main.1.sm_70.ptx:3827) shfl.sync.idx.b32 %r759|%p525, %r8370, %r6034, %r6063, %r6064;
GPGPU-Sim PTX: 168 (potential) branch divergence @  PC=0x60c0 (main.1.sm_70.ptx:3831) @%p4293 bra BB0_335;
GPGPU-Sim PTX:    immediate post dominator      @  PC=0x6128 (main.1.sm_70.ptx:3847) add.s32 %r24754, %r24754, 1;
GPGPU-Sim PTX: 169 (potential) branch divergence @  PC=0x6138 (main.1.sm_70.ptx:3849) @%p4297 bra BB0_327;
GPGPU-Sim PTX:    immediate post dominator      @  PC=0x6140 (main.1.sm_70.ptx:3851) xor.b32 %r8433, %r6025, 33;
GPGPU-Sim PTX: 170 (potential) branch divergence @  PC=0x61c8 (main.1.sm_70.ptx:3870) @%p4299 bra BB0_339;
GPGPU-Sim PTX:    immediate post dominator      @  PC=0x6230 (main.1.sm_70.ptx:3886) shfl.sync.idx.b32 %r774|%p533, %r8442, %r6033, %r6063, %r6064;
GPGPU-Sim PTX: 171 (potential) branch divergence @  PC=0x6250 (main.1.sm_70.ptx:3890) @%p4299 bra BB0_341;
GPGPU-Sim PTX:    immediate post dominator      @  PC=0x62b8 (main.1.sm_70.ptx:3906) shfl.sync.idx.b32 %r778|%p537, %r8442, %r6043, %r6063, %r6064;
GPGPU-Sim PTX: 172 (potential) branch divergence @  PC=0x62d8 (main.1.sm_70.ptx:3910) @%p4299 bra BB0_343;
GPGPU-Sim PTX:    immediate post dominator      @  PC=0x6340 (main.1.sm_70.ptx:3926) shfl.sync.idx.b32 %r782|%p541, %r8442, %r6034, %r6063, %r6064;
GPGPU-Sim PTX: 173 (potential) branch divergence @  PC=0x6360 (main.1.sm_70.ptx:3930) @%p4299 bra BB0_345;
GPGPU-Sim PTX:    immediate post dominator      @  PC=0x63c8 (main.1.sm_70.ptx:3946) add.s32 %r24755, %r24755, 1;
GPGPU-Sim PTX: 174 (potential) branch divergence @  PC=0x63d8 (main.1.sm_70.ptx:3948) @%p4303 bra BB0_337;
GPGPU-Sim PTX:    immediate post dominator      @  PC=0x63e0 (main.1.sm_70.ptx:3950) xor.b32 %r8505, %r6025, 34;
GPGPU-Sim PTX: 175 (potential) branch divergence @  PC=0x6468 (main.1.sm_70.ptx:3969) @%p4305 bra BB0_349;
GPGPU-Sim PTX:    immediate post dominator      @  PC=0x64d0 (main.1.sm_70.ptx:3985) shfl.sync.idx.b32 %r797|%p549, %r8514, %r6033, %r6063, %r6064;
GPGPU-Sim PTX: 176 (potential) branch divergence @  PC=0x64f0 (main.1.sm_70.ptx:3989) @%p4305 bra BB0_351;
GPGPU-Sim PTX:    immediate post dominator      @  PC=0x6558 (main.1.sm_70.ptx:4005) shfl.sync.idx.b32 %r801|%p553, %r8514, %r6043, %r6063, %r6064;
GPGPU-Sim PTX: 177 (potential) branch divergence @  PC=0x6578 (main.1.sm_70.ptx:4009) @%p4305 bra BB0_353;
GPGPU-Sim PTX:    immediate post dominator      @  PC=0x65e0 (main.1.sm_70.ptx:4025) shfl.sync.idx.b32 %r805|%p557, %r8514, %r6034, %r6063, %r6064;
GPGPU-Sim PTX: 178 (potential) branch divergence @  PC=0x6600 (main.1.sm_70.ptx:4029) @%p4305 bra BB0_355;
GPGPU-Sim PTX:    immediate post dominator      @  PC=0x6668 (main.1.sm_70.ptx:4045) add.s32 %r24756, %r24756, 1;
GPGPU-Sim PTX: 179 (potential) branch divergence @  PC=0x6678 (main.1.sm_70.ptx:4047) @%p4309 bra BB0_347;
GPGPU-Sim PTX:    immediate post dominator      @  PC=0x6680 (main.1.sm_70.ptx:4049) xor.b32 %r8577, %r6025, 35;
GPGPU-Sim PTX: 180 (potential) branch divergence @  PC=0x6708 (main.1.sm_70.ptx:4068) @%p4311 bra BB0_359;
GPGPU-Sim PTX:    immediate post dominator      @  PC=0x6770 (main.1.sm_70.ptx:4084) shfl.sync.idx.b32 %r820|%p565, %r8586, %r6033, %r6063, %r6064;
GPGPU-Sim PTX: 181 (potential) branch divergence @  PC=0x6790 (main.1.sm_70.ptx:4088) @%p4311 bra BB0_361;
GPGPU-Sim PTX:    immediate post dominator      @  PC=0x67f8 (main.1.sm_70.ptx:4104) shfl.sync.idx.b32 %r824|%p569, %r8586, %r6043, %r6063, %r6064;
GPGPU-Sim PTX: 182 (potential) branch divergence @  PC=0x6818 (main.1.sm_70.ptx:4108) @%p4311 bra BB0_363;
GPGPU-Sim PTX:    immediate post dominator      @  PC=0x6880 (main.1.sm_70.ptx:4124) shfl.sync.idx.b32 %r828|%p573, %r8586, %r6034, %r6063, %r6064;
GPGPU-Sim PTX: 183 (potential) branch divergence @  PC=0x68a0 (main.1.sm_70.ptx:4128) @%p4311 bra BB0_365;
GPGPU-Sim PTX:    immediate post dominator      @  PC=0x6908 (main.1.sm_70.ptx:4144) add.s32 %r24757, %r24757, 1;
GPGPU-Sim PTX: 184 (potential) branch divergence @  PC=0x6918 (main.1.sm_70.ptx:4146) @%p4315 bra BB0_357;
GPGPU-Sim PTX:    immediate post dominator      @  PC=0x6920 (main.1.sm_70.ptx:4148) xor.b32 %r8649, %r6025, 36;
GPGPU-Sim PTX: 185 (potential) branch divergence @  PC=0x69a8 (main.1.sm_70.ptx:4167) @%p4317 bra BB0_369;
GPGPU-Sim PTX:    immediate post dominator      @  PC=0x6a10 (main.1.sm_70.ptx:4183) shfl.sync.idx.b32 %r843|%p581, %r8658, %r6033, %r6063, %r6064;
GPGPU-Sim PTX: 186 (potential) branch divergence @  PC=0x6a30 (main.1.sm_70.ptx:4187) @%p4317 bra BB0_371;
GPGPU-Sim PTX:    immediate post dominator      @  PC=0x6a98 (main.1.sm_70.ptx:4203) shfl.sync.idx.b32 %r847|%p585, %r8658, %r6043, %r6063, %r6064;
GPGPU-Sim PTX: 187 (potential) branch divergence @  PC=0x6ab8 (main.1.sm_70.ptx:4207) @%p4317 bra BB0_373;
GPGPU-Sim PTX:    immediate post dominator      @  PC=0x6b20 (main.1.sm_70.ptx:4223) shfl.sync.idx.b32 %r851|%p589, %r8658, %r6034, %r6063, %r6064;
GPGPU-Sim PTX: 188 (potential) branch divergence @  PC=0x6b40 (main.1.sm_70.ptx:4227) @%p4317 bra BB0_375;
GPGPU-Sim PTX:    immediate post dominator      @  PC=0x6ba8 (main.1.sm_70.ptx:4243) add.s32 %r24758, %r24758, 1;
GPGPU-Sim PTX: 189 (potential) branch divergence @  PC=0x6bb8 (main.1.sm_70.ptx:4245) @%p4321 bra BB0_367;
GPGPU-Sim PTX:    immediate post dominator      @  PC=0x6bc0 (main.1.sm_70.ptx:4247) xor.b32 %r8721, %r6025, 37;
GPGPU-Sim PTX: 190 (potential) branch divergence @  PC=0x6c48 (main.1.sm_70.ptx:4266) @%p4323 bra BB0_379;
GPGPU-Sim PTX:    immediate post dominator      @  PC=0x6cb0 (main.1.sm_70.ptx:4282) shfl.sync.idx.b32 %r866|%p597, %r8730, %r6033, %r6063, %r6064;
GPGPU-Sim PTX: 191 (potential) branch divergence @  PC=0x6cd0 (main.1.sm_70.ptx:4286) @%p4323 bra BB0_381;
GPGPU-Sim PTX:    immediate post dominator      @  PC=0x6d38 (main.1.sm_70.ptx:4302) shfl.sync.idx.b32 %r870|%p601, %r8730, %r6043, %r6063, %r6064;
GPGPU-Sim PTX: 192 (potential) branch divergence @  PC=0x6d58 (main.1.sm_70.ptx:4306) @%p4323 bra BB0_383;
GPGPU-Sim PTX:    immediate post dominator      @  PC=0x6dc0 (main.1.sm_70.ptx:4322) shfl.sync.idx.b32 %r874|%p605, %r8730, %r6034, %r6063, %r6064;
GPGPU-Sim PTX: 193 (potential) branch divergence @  PC=0x6de0 (main.1.sm_70.ptx:4326) @%p4323 bra BB0_385;
GPGPU-Sim PTX:    immediate post dominator      @  PC=0x6e48 (main.1.sm_70.ptx:4342) add.s32 %r24759, %r24759, 1;
GPGPU-Sim PTX: 194 (potential) branch divergence @  PC=0x6e58 (main.1.sm_70.ptx:4344) @%p4327 bra BB0_377;
GPGPU-Sim PTX:    immediate post dominator      @  PC=0x6e60 (main.1.sm_70.ptx:4346) xor.b32 %r8793, %r6025, 38;
GPGPU-Sim PTX: 195 (potential) branch divergence @  PC=0x6ee8 (main.1.sm_70.ptx:4365) @%p4329 bra BB0_389;
GPGPU-Sim PTX:    immediate post dominator      @  PC=0x6f50 (main.1.sm_70.ptx:4381) shfl.sync.idx.b32 %r889|%p613, %r8802, %r6033, %r6063, %r6064;
GPGPU-Sim PTX: 196 (potential) branch divergence @  PC=0x6f70 (main.1.sm_70.ptx:4385) @%p4329 bra BB0_391;
GPGPU-Sim PTX:    immediate post dominator      @  PC=0x6fd8 (main.1.sm_70.ptx:4401) shfl.sync.idx.b32 %r893|%p617, %r8802, %r6043, %r6063, %r6064;
GPGPU-Sim PTX: 197 (potential) branch divergence @  PC=0x6ff8 (main.1.sm_70.ptx:4405) @%p4329 bra BB0_393;
GPGPU-Sim PTX:    immediate post dominator      @  PC=0x7060 (main.1.sm_70.ptx:4421) shfl.sync.idx.b32 %r897|%p621, %r8802, %r6034, %r6063, %r6064;
GPGPU-Sim PTX: 198 (potential) branch divergence @  PC=0x7080 (main.1.sm_70.ptx:4425) @%p4329 bra BB0_395;
GPGPU-Sim PTX:    immediate post dominator      @  PC=0x70e8 (main.1.sm_70.ptx:4441) add.s32 %r24760, %r24760, 1;
GPGPU-Sim PTX: 199 (potential) branch divergence @  PC=0x70f8 (main.1.sm_70.ptx:4443) @%p4333 bra BB0_387;
GPGPU-Sim PTX:    immediate post dominator      @  PC=0x7100 (main.1.sm_70.ptx:4445) xor.b32 %r8865, %r6025, 39;
GPGPU-Sim PTX: 200 (potential) branch divergence @  PC=0x7188 (main.1.sm_70.ptx:4464) @%p4335 bra BB0_399;
GPGPU-Sim PTX:    immediate post dominator      @  PC=0x71f0 (main.1.sm_70.ptx:4480) shfl.sync.idx.b32 %r912|%p629, %r8874, %r6033, %r6063, %r6064;
GPGPU-Sim PTX: 201 (potential) branch divergence @  PC=0x7210 (main.1.sm_70.ptx:4484) @%p4335 bra BB0_401;
GPGPU-Sim PTX:    immediate post dominator      @  PC=0x7278 (main.1.sm_70.ptx:4500) shfl.sync.idx.b32 %r916|%p633, %r8874, %r6043, %r6063, %r6064;
GPGPU-Sim PTX: 202 (potential) branch divergence @  PC=0x7298 (main.1.sm_70.ptx:4504) @%p4335 bra BB0_403;
GPGPU-Sim PTX:    immediate post dominator      @  PC=0x7300 (main.1.sm_70.ptx:4520) shfl.sync.idx.b32 %r920|%p637, %r8874, %r6034, %r6063, %r6064;
GPGPU-Sim PTX: 203 (potential) branch divergence @  PC=0x7320 (main.1.sm_70.ptx:4524) @%p4335 bra BB0_405;
GPGPU-Sim PTX:    immediate post dominator      @  PC=0x7388 (main.1.sm_70.ptx:4540) add.s32 %r24761, %r24761, 1;
GPGPU-Sim PTX: 204 (potential) branch divergence @  PC=0x7398 (main.1.sm_70.ptx:4542) @%p4339 bra BB0_397;
GPGPU-Sim PTX:    immediate post dominator      @  PC=0x73a0 (main.1.sm_70.ptx:4544) xor.b32 %r8937, %r6025, 40;
GPGPU-Sim PTX: 205 (potential) branch divergence @  PC=0x7428 (main.1.sm_70.ptx:4563) @%p4341 bra BB0_409;
GPGPU-Sim PTX:    immediate post dominator      @  PC=0x7490 (main.1.sm_70.ptx:4579) shfl.sync.idx.b32 %r935|%p645, %r8946, %r6033, %r6063, %r6064;
GPGPU-Sim PTX: 206 (potential) branch divergence @  PC=0x74b0 (main.1.sm_70.ptx:4583) @%p4341 bra BB0_411;
GPGPU-Sim PTX:    immediate post dominator      @  PC=0x7518 (main.1.sm_70.ptx:4599) shfl.sync.idx.b32 %r939|%p649, %r8946, %r6043, %r6063, %r6064;
GPGPU-Sim PTX: 207 (potential) branch divergence @  PC=0x7538 (main.1.sm_70.ptx:4603) @%p4341 bra BB0_413;
GPGPU-Sim PTX:    immediate post dominator      @  PC=0x75a0 (main.1.sm_70.ptx:4619) shfl.sync.idx.b32 %r943|%p653, %r8946, %r6034, %r6063, %r6064;
GPGPU-Sim PTX: 208 (potential) branch divergence @  PC=0x75c0 (main.1.sm_70.ptx:4623) @%p4341 bra BB0_415;
GPGPU-Sim PTX:    immediate post dominator      @  PC=0x7628 (main.1.sm_70.ptx:4639) add.s32 %r24762, %r24762, 1;
GPGPU-Sim PTX: 209 (potential) branch divergence @  PC=0x7638 (main.1.sm_70.ptx:4641) @%p4345 bra BB0_407;
GPGPU-Sim PTX:    immediate post dominator      @  PC=0x7640 (main.1.sm_70.ptx:4643) xor.b32 %r9009, %r6025, 41;
GPGPU-Sim PTX: 210 (potential) branch divergence @  PC=0x76c8 (main.1.sm_70.ptx:4662) @%p4347 bra BB0_419;
GPGPU-Sim PTX:    immediate post dominator      @  PC=0x7730 (main.1.sm_70.ptx:4678) shfl.sync.idx.b32 %r958|%p661, %r9018, %r6033, %r6063, %r6064;
GPGPU-Sim PTX: 211 (potential) branch divergence @  PC=0x7750 (main.1.sm_70.ptx:4682) @%p4347 bra BB0_421;
GPGPU-Sim PTX:    immediate post dominator      @  PC=0x77b8 (main.1.sm_70.ptx:4698) shfl.sync.idx.b32 %r962|%p665, %r9018, %r6043, %r6063, %r6064;
GPGPU-Sim PTX: 212 (potential) branch divergence @  PC=0x77d8 (main.1.sm_70.ptx:4702) @%p4347 bra BB0_423;
GPGPU-Sim PTX:    immediate post dominator      @  PC=0x7840 (main.1.sm_70.ptx:4718) shfl.sync.idx.b32 %r966|%p669, %r9018, %r6034, %r6063, %r6064;
GPGPU-Sim PTX: 213 (potential) branch divergence @  PC=0x7860 (main.1.sm_70.ptx:4722) @%p4347 bra BB0_425;
GPGPU-Sim PTX:    immediate post dominator      @  PC=0x78c8 (main.1.sm_70.ptx:4738) add.s32 %r24763, %r24763, 1;
GPGPU-Sim PTX: 214 (potential) branch divergence @  PC=0x78d8 (main.1.sm_70.ptx:4740) @%p4351 bra BB0_417;
GPGPU-Sim PTX:    immediate post dominator      @  PC=0x78e0 (main.1.sm_70.ptx:4742) xor.b32 %r9081, %r6025, 42;
GPGPU-Sim PTX: 215 (potential) branch divergence @  PC=0x7968 (main.1.sm_70.ptx:4761) @%p4353 bra BB0_429;
GPGPU-Sim PTX:    immediate post dominator      @  PC=0x79d0 (main.1.sm_70.ptx:4777) shfl.sync.idx.b32 %r981|%p677, %r9090, %r6033, %r6063, %r6064;
GPGPU-Sim PTX: 216 (potential) branch divergence @  PC=0x79f0 (main.1.sm_70.ptx:4781) @%p4353 bra BB0_431;
GPGPU-Sim PTX:    immediate post dominator      @  PC=0x7a58 (main.1.sm_70.ptx:4797) shfl.sync.idx.b32 %r985|%p681, %r9090, %r6043, %r6063, %r6064;
GPGPU-Sim PTX: 217 (potential) branch divergence @  PC=0x7a78 (main.1.sm_70.ptx:4801) @%p4353 bra BB0_433;
GPGPU-Sim PTX:    immediate post dominator      @  PC=0x7ae0 (main.1.sm_70.ptx:4817) shfl.sync.idx.b32 %r989|%p685, %r9090, %r6034, %r6063, %r6064;
GPGPU-Sim PTX: 218 (potential) branch divergence @  PC=0x7b00 (main.1.sm_70.ptx:4821) @%p4353 bra BB0_435;
GPGPU-Sim PTX:    immediate post dominator      @  PC=0x7b68 (main.1.sm_70.ptx:4837) add.s32 %r24764, %r24764, 1;
GPGPU-Sim PTX: 219 (potential) branch divergence @  PC=0x7b78 (main.1.sm_70.ptx:4839) @%p4357 bra BB0_427;
GPGPU-Sim PTX:    immediate post dominator      @  PC=0x7b80 (main.1.sm_70.ptx:4841) xor.b32 %r9153, %r6025, 43;
[...]
DRAM[28]: 16 bks, busW=16 BL=2 CL=12, tRRD=3 tCCD=1, tRCD=12 tRAS=28 tRP=12 tRC=40
n_cmd=682184 n_nop=682054 n_act=2 n_pre=0 n_ref_event=0 n_req=128 n_rd=128 n_rd_L2_A=0 n_write=0 n_wr_bk=0 bw_util=0.0001876
n_activity=368 dram_eff=0.3478
bk0: 64a 682112i bk1: 64a 682112i bk2: 0a 682184i bk3: 0a 682184i bk4: 0a 682184i bk5: 0a 682184i bk6: 0a 682184i bk7: 0a 682184i bk8: 0a 682184i bk9: 0a 682184i bk10: 0a 682184i bk11: 0a 682184i bk12: 0a 682184i bk13: 0a 682184i bk14: 0a 682184i bk15: 0a 682184i 

------------------------------------------------------------------------

Row_Buffer_Locality = 0.984375
Row_Buffer_Locality_read = 0.984375
Row_Buffer_Locality_write = -nan
Bank_Level_Parallism = 1.000000
Bank_Level_Parallism_Col = 1.000000
Bank_Level_Parallism_Ready = 1.000000
write_to_read_ratio_blp_rw_average = 0.000000
GrpLevelPara = 1.000000 

BW Util details:
bwutil = 0.000188 
total_CMD = 682184 
util_bw = 128 
Wasted_Col = 144 
Wasted_Row = 0 
Idle = 681912 

BW Util Bottlenecks: 
RCDc_limit = 24 
RCDWRc_limit = 0 
WTRc_limit = 0 
RTWc_limit = 0 
CCDLc_limit = 120 
rwq = 0 
CCDLc_limit_alone = 120 
WTRc_limit_alone = 0 
RTWc_limit_alone = 0 

Commands details: 
total_CMD = 682184 
n_nop = 682054 
Read = 128 
Write = 0 
L2_Alloc = 0 
L2_WB = 0 
n_act = 2 
n_pre = 0 
n_ref = 0 
n_req = 128 
total_req = 128 

Dual Bus Interface Util: 
issued_total_row = 2 
issued_total_col = 128 
Row_Bus_Util =  0.000003 
CoL_Bus_Util = 0.000188 
Either_Row_CoL_Bus_Util = 0.000191 
Issued_on_Two_Bus_Simul_Util = 0.000000 
issued_two_Eff = 0.000000 
queue_avg = 0.001759 


dram_util_bins: 0 0 0 0 0 0 0 0 0 0
dram_eff_bins: 0 0 0 0 0 0 0 0 0 0
mrqq: max=13 avg=0.00175906
Memory Partition 29: 
Cache L2_bank_058:
MSHR contents

Cache L2_bank_059:
MSHR contents

In Dram Latency Queue (total = 0): 
DRAM[29]: 16 bks, busW=16 BL=2 CL=12, tRRD=3 tCCD=1, tRCD=12 tRAS=28 tRP=12 tRC=40
n_cmd=682184 n_nop=682054 n_act=2 n_pre=0 n_ref_event=0 n_req=128 n_rd=128 n_rd_L2_A=0 n_write=0 n_wr_bk=0 bw_util=0.0001876
n_activity=368 dram_eff=0.3478
bk0: 64a 682112i bk1: 64a 682113i bk2: 0a 682184i bk3: 0a 682184i bk4: 0a 682184i bk5: 0a 682184i bk6: 0a 682184i bk7: 0a 682184i bk8: 0a 682184i bk9: 0a 682184i bk10: 0a 682184i bk11: 0a 682184i bk12: 0a 682184i bk13: 0a 682184i bk14: 0a 682184i bk15: 0a 682184i 

------------------------------------------------------------------------

Row_Buffer_Locality = 0.984375
Row_Buffer_Locality_read = 0.984375
Row_Buffer_Locality_write = -nan
Bank_Level_Parallism = 1.000000
Bank_Level_Parallism_Col = 1.000000
Bank_Level_Parallism_Ready = 1.000000
write_to_read_ratio_blp_rw_average = 0.000000
GrpLevelPara = 1.000000 

BW Util details:
bwutil = 0.000188 
total_CMD = 682184 
util_bw = 128 
Wasted_Col = 143 
Wasted_Row = 0 
Idle = 681913 

BW Util Bottlenecks: 
RCDc_limit = 24 
RCDWRc_limit = 0 
WTRc_limit = 0 
RTWc_limit = 0 
CCDLc_limit = 119 
rwq = 0 
CCDLc_limit_alone = 119 
WTRc_limit_alone = 0 
RTWc_limit_alone = 0 

Commands details: 
total_CMD = 682184 
n_nop = 682054 
Read = 128 
Write = 0 
L2_Alloc = 0 
L2_WB = 0 
n_act = 2 
n_pre = 0 
n_ref = 0 
n_req = 128 
total_req = 128 

Dual Bus Interface Util: 
issued_total_row = 2 
issued_total_col = 128 
Row_Bus_Util =  0.000003 
CoL_Bus_Util = 0.000188 
Either_Row_CoL_Bus_Util = 0.000191 
Issued_on_Two_Bus_Simul_Util = 0.000000 
issued_two_Eff = 0.000000 
queue_avg = 0.001717 


dram_util_bins: 0 0 0 0 0 0 0 0 0 0
dram_eff_bins: 0 0 0 0 0 0 0 0 0 0
mrqq: max=13 avg=0.00171655
Memory Partition 30: 
Cache L2_bank_060:
MSHR contents

Cache L2_bank_061:
MSHR contents

In Dram Latency Queue (total = 0): 
DRAM[30]: 16 bks, busW=16 BL=2 CL=12, tRRD=3 tCCD=1, tRCD=12 tRAS=28 tRP=12 tRC=40
n_cmd=682184 n_nop=682054 n_act=2 n_pre=0 n_ref_event=0 n_req=128 n_rd=128 n_rd_L2_A=0 n_write=0 n_wr_bk=0 bw_util=0.0001876
n_activity=368 dram_eff=0.3478
bk0: 64a 682112i bk1: 64a 682114i bk2: 0a 682184i bk3: 0a 682184i bk4: 0a 682184i bk5: 0a 682184i bk6: 0a 682184i bk7: 0a 682184i bk8: 0a 682184i bk9: 0a 682184i bk10: 0a 682184i bk11: 0a 682184i bk12: 0a 682184i bk13: 0a 682184i bk14: 0a 682184i bk15: 0a 682184i 

------------------------------------------------------------------------

Row_Buffer_Locality = 0.984375
Row_Buffer_Locality_read = 0.984375
Row_Buffer_Locality_write = -nan
Bank_Level_Parallism = 1.000000
Bank_Level_Parallism_Col = 1.000000
Bank_Level_Parallism_Ready = 1.000000
write_to_read_ratio_blp_rw_average = 0.000000
GrpLevelPara = 1.000000 

BW Util details:
bwutil = 0.000188 
total_CMD = 682184 
util_bw = 128 
Wasted_Col = 142 
Wasted_Row = 0 
Idle = 681914 

BW Util Bottlenecks: 
RCDc_limit = 24 
RCDWRc_limit = 0 
WTRc_limit = 0 
RTWc_limit = 0 
CCDLc_limit = 118 
rwq = 0 
CCDLc_limit_alone = 118 
WTRc_limit_alone = 0 
RTWc_limit_alone = 0 

Commands details: 
total_CMD = 682184 
n_nop = 682054 
Read = 128 
Write = 0 
L2_Alloc = 0 
L2_WB = 0 
n_act = 2 
n_pre = 0 
n_ref = 0 
n_req = 128 
total_req = 128 

Dual Bus Interface Util: 
issued_total_row = 2 
issued_total_col = 128 
Row_Bus_Util =  0.000003 
CoL_Bus_Util = 0.000188 
Either_Row_CoL_Bus_Util = 0.000191 
Issued_on_Two_Bus_Simul_Util = 0.000000 
issued_two_Eff = 0.000000 
queue_avg = 0.001718 


dram_util_bins: 0 0 0 0 0 0 0 0 0 0
dram_eff_bins: 0 0 0 0 0 0 0 0 0 0
mrqq: max=13 avg=0.00171801
Memory Partition 31: 
Cache L2_bank_062:
MSHR contents

Cache L2_bank_063:
MSHR contents

In Dram Latency Queue (total = 0): 
DRAM[31]: 16 bks, busW=16 BL=2 CL=12, tRRD=3 tCCD=1, tRCD=12 tRAS=28 tRP=12 tRC=40
n_cmd=682184 n_nop=682054 n_act=2 n_pre=0 n_ref_event=0 n_req=128 n_rd=128 n_rd_L2_A=0 n_write=0 n_wr_bk=0 bw_util=0.0001876
n_activity=368 dram_eff=0.3478
bk0: 64a 682112i bk1: 64a 682112i bk2: 0a 682184i bk3: 0a 682184i bk4: 0a 682184i bk5: 0a 682184i bk6: 0a 682184i bk7: 0a 682184i bk8: 0a 682184i bk9: 0a 682184i bk10: 0a 682184i bk11: 0a 682184i bk12: 0a 682184i bk13: 0a 682184i bk14: 0a 682184i bk15: 0a 682184i 

------------------------------------------------------------------------

Row_Buffer_Locality = 0.984375
Row_Buffer_Locality_read = 0.984375
Row_Buffer_Locality_write = -nan
Bank_Level_Parallism = 1.000000
Bank_Level_Parallism_Col = 1.000000
Bank_Level_Parallism_Ready = 1.000000
write_to_read_ratio_blp_rw_average = 0.000000
GrpLevelPara = 1.000000 

BW Util details:
bwutil = 0.000188 
total_CMD = 682184 
util_bw = 128 
Wasted_Col = 144 
Wasted_Row = 0 
Idle = 681912 

BW Util Bottlenecks: 
RCDc_limit = 24 
RCDWRc_limit = 0 
WTRc_limit = 0 
RTWc_limit = 0 
CCDLc_limit = 120 
rwq = 0 
CCDLc_limit_alone = 120 
WTRc_limit_alone = 0 
RTWc_limit_alone = 0 

Commands details: 
total_CMD = 682184 
n_nop = 682054 
Read = 128 
Write = 0 
L2_Alloc = 0 
L2_WB = 0 
n_act = 2 
n_pre = 0 
n_ref = 0 
n_req = 128 
total_req = 128 

Dual Bus Interface Util: 
issued_total_row = 2 
issued_total_col = 128 
Row_Bus_Util =  0.000003 
CoL_Bus_Util = 0.000188 
Either_Row_CoL_Bus_Util = 0.000191 
Issued_on_Two_Bus_Simul_Util = 0.000000 
issued_two_Eff = 0.000000 
queue_avg = 0.001759 


dram_util_bins: 0 0 0 0 0 0 0 0 0 0
dram_eff_bins: 0 0 0 0 0 0 0 0 0 0
mrqq: max=13 avg=0.00175906

========= L2 cache stats =========
L2_cache_bank[0]: Access = 210, Miss = 96, Miss_rate = 0.457, Pending_hits = 0, Reservation_fails = 0
L2_cache_bank[1]: Access = 64, Miss = 64, Miss_rate = 1.000, Pending_hits = 0, Reservation_fails = 0
L2_cache_bank[2]: Access = 192, Miss = 96, Miss_rate = 0.500, Pending_hits = 0, Reservation_fails = 0
L2_cache_bank[3]: Access = 64, Miss = 64, Miss_rate = 1.000, Pending_hits = 0, Reservation_fails = 0
L2_cache_bank[4]: Access = 192, Miss = 96, Miss_rate = 0.500, Pending_hits = 0, Reservation_fails = 0
L2_cache_bank[5]: Access = 64, Miss = 64, Miss_rate = 1.000, Pending_hits = 0, Reservation_fails = 0
L2_cache_bank[6]: Access = 192, Miss = 96, Miss_rate = 0.500, Pending_hits = 0, Reservation_fails = 0
L2_cache_bank[7]: Access = 64, Miss = 64, Miss_rate = 1.000, Pending_hits = 0, Reservation_fails = 0
L2_cache_bank[8]: Access = 192, Miss = 96, Miss_rate = 0.500, Pending_hits = 0, Reservation_fails = 0
L2_cache_bank[9]: Access = 64, Miss = 64, Miss_rate = 1.000, Pending_hits = 0, Reservation_fails = 0
L2_cache_bank[10]: Access = 192, Miss = 96, Miss_rate = 0.500, Pending_hits = 0, Reservation_fails = 0
L2_cache_bank[11]: Access = 64, Miss = 64, Miss_rate = 1.000, Pending_hits = 0, Reservation_fails = 0
L2_cache_bank[12]: Access = 192, Miss = 96, Miss_rate = 0.500, Pending_hits = 0, Reservation_fails = 0
L2_cache_bank[13]: Access = 64, Miss = 64, Miss_rate = 1.000, Pending_hits = 0, Reservation_fails = 0
L2_cache_bank[14]: Access = 192, Miss = 96, Miss_rate = 0.500, Pending_hits = 0, Reservation_fails = 0
L2_cache_bank[15]: Access = 64, Miss = 64, Miss_rate = 1.000, Pending_hits = 0, Reservation_fails = 0
L2_cache_bank[16]: Access = 192, Miss = 96, Miss_rate = 0.500, Pending_hits = 0, Reservation_fails = 0
L2_cache_bank[17]: Access = 64, Miss = 64, Miss_rate = 1.000, Pending_hits = 0, Reservation_fails = 0
L2_cache_bank[18]: Access = 192, Miss = 96, Miss_rate = 0.500, Pending_hits = 0, Reservation_fails = 0
L2_cache_bank[19]: Access = 64, Miss = 64, Miss_rate = 1.000, Pending_hits = 0, Reservation_fails = 0
L2_cache_bank[20]: Access = 192, Miss = 96, Miss_rate = 0.500, Pending_hits = 0, Reservation_fails = 0
L2_cache_bank[21]: Access = 64, Miss = 64, Miss_rate = 1.000, Pending_hits = 0, Reservation_fails = 0
L2_cache_bank[22]: Access = 192, Miss = 96, Miss_rate = 0.500, Pending_hits = 0, Reservation_fails = 0
L2_cache_bank[23]: Access = 64, Miss = 64, Miss_rate = 1.000, Pending_hits = 0, Reservation_fails = 0
L2_cache_bank[24]: Access = 192, Miss = 96, Miss_rate = 0.500, Pending_hits = 0, Reservation_fails = 0
L2_cache_bank[25]: Access = 64, Miss = 64, Miss_rate = 1.000, Pending_hits = 0, Reservation_fails = 0
L2_cache_bank[26]: Access = 192, Miss = 96, Miss_rate = 0.500, Pending_hits = 0, Reservation_fails = 0
L2_cache_bank[27]: Access = 64, Miss = 64, Miss_rate = 1.000, Pending_hits = 0, Reservation_fails = 0
L2_cache_bank[28]: Access = 192, Miss = 96, Miss_rate = 0.500, Pending_hits = 0, Reservation_fails = 0
L2_cache_bank[29]: Access = 64, Miss = 64, Miss_rate = 1.000, Pending_hits = 0, Reservation_fails = 0
L2_cache_bank[30]: Access = 192, Miss = 96, Miss_rate = 0.500, Pending_hits = 0, Reservation_fails = 0
L2_cache_bank[31]: Access = 64, Miss = 64, Miss_rate = 1.000, Pending_hits = 0, Reservation_fails = 0
L2_cache_bank[32]: Access = 192, Miss = 96, Miss_rate = 0.500, Pending_hits = 0, Reservation_fails = 0
L2_cache_bank[33]: Access = 64, Miss = 64, Miss_rate = 1.000, Pending_hits = 0, Reservation_fails = 0
L2_cache_bank[34]: Access = 192, Miss = 96, Miss_rate = 0.500, Pending_hits = 0, Reservation_fails = 0
L2_cache_bank[35]: Access = 64, Miss = 64, Miss_rate = 1.000, Pending_hits = 0, Reservation_fails = 0
L2_cache_bank[36]: Access = 192, Miss = 96, Miss_rate = 0.500, Pending_hits = 0, Reservation_fails = 0
L2_cache_bank[37]: Access = 64, Miss = 64, Miss_rate = 1.000, Pending_hits = 0, Reservation_fails = 0
L2_cache_bank[38]: Access = 192, Miss = 96, Miss_rate = 0.500, Pending_hits = 0, Reservation_fails = 0
L2_cache_bank[39]: Access = 64, Miss = 64, Miss_rate = 1.000, Pending_hits = 0, Reservation_fails = 0
L2_cache_bank[40]: Access = 192, Miss = 96, Miss_rate = 0.500, Pending_hits = 0, Reservation_fails = 0
L2_cache_bank[41]: Access = 64, Miss = 64, Miss_rate = 1.000, Pending_hits = 0, Reservation_fails = 0
L2_cache_bank[42]: Access = 192, Miss = 96, Miss_rate = 0.500, Pending_hits = 0, Reservation_fails = 0
L2_cache_bank[43]: Access = 64, Miss = 64, Miss_rate = 1.000, Pending_hits = 0, Reservation_fails = 0
L2_cache_bank[44]: Access = 192, Miss = 96, Miss_rate = 0.500, Pending_hits = 0, Reservation_fails = 0
L2_cache_bank[45]: Access = 64, Miss = 64, Miss_rate = 1.000, Pending_hits = 0, Reservation_fails = 0
L2_cache_bank[46]: Access = 192, Miss = 96, Miss_rate = 0.500, Pending_hits = 0, Reservation_fails = 0
L2_cache_bank[47]: Access = 64, Miss = 64, Miss_rate = 1.000, Pending_hits = 0, Reservation_fails = 0
L2_cache_bank[48]: Access = 192, Miss = 96, Miss_rate = 0.500, Pending_hits = 0, Reservation_fails = 0
L2_cache_bank[49]: Access = 64, Miss = 64, Miss_rate = 1.000, Pending_hits = 0, Reservation_fails = 0
L2_cache_bank[50]: Access = 192, Miss = 96, Miss_rate = 0.500, Pending_hits = 0, Reservation_fails = 0
L2_cache_bank[51]: Access = 64, Miss = 64, Miss_rate = 1.000, Pending_hits = 0, Reservation_fails = 0
L2_cache_bank[52]: Access = 192, Miss = 96, Miss_rate = 0.500, Pending_hits = 0, Reservation_fails = 0
L2_cache_bank[53]: Access = 64, Miss = 64, Miss_rate = 1.000, Pending_hits = 0, Reservation_fails = 0
L2_cache_bank[54]: Access = 192, Miss = 96, Miss_rate = 0.500, Pending_hits = 0, Reservation_fails = 0
L2_cache_bank[55]: Access = 64, Miss = 64, Miss_rate = 1.000, Pending_hits = 0, Reservation_fails = 0
L2_cache_bank[56]: Access = 192, Miss = 96, Miss_rate = 0.500, Pending_hits = 0, Reservation_fails = 0
L2_cache_bank[57]: Access = 64, Miss = 64, Miss_rate = 1.000, Pending_hits = 0, Reservation_fails = 0
L2_cache_bank[58]: Access = 192, Miss = 96, Miss_rate = 0.500, Pending_hits = 0, Reservation_fails = 0
L2_cache_bank[59]: Access = 64, Miss = 64, Miss_rate = 1.000, Pending_hits = 0, Reservation_fails = 0
L2_cache_bank[60]: Access = 192, Miss = 96, Miss_rate = 0.500, Pending_hits = 0, Reservation_fails = 0
L2_cache_bank[61]: Access = 64, Miss = 64, Miss_rate = 1.000, Pending_hits = 0, Reservation_fails = 0
L2_cache_bank[62]: Access = 192, Miss = 96, Miss_rate = 0.500, Pending_hits = 0, Reservation_fails = 0
L2_cache_bank[63]: Access = 64, Miss = 64, Miss_rate = 1.000, Pending_hits = 0, Reservation_fails = 0
L2_total_cache_accesses = 8210
L2_total_cache_misses = 5120
L2_total_cache_miss_rate = 0.6236
L2_total_cache_pending_hits = 0
L2_total_cache_reservation_fails = 0
L2_total_cache_breakdown:
	L2_cache_stats_breakdown[GLOBAL_ACC_R][HIT] = 18
	L2_cache_stats_breakdown[GLOBAL_ACC_R][HIT_RESERVED] = 0
	L2_cache_stats_breakdown[GLOBAL_ACC_R][MISS] = 1024
	L2_cache_stats_breakdown[GLOBAL_ACC_R][RESERVATION_FAIL] = 0
	L2_cache_stats_breakdown[GLOBAL_ACC_R][SECTOR_MISS] = 3072
	L2_cache_stats_breakdown[LOCAL_ACC_R][HIT] = 0
	L2_cache_stats_breakdown[LOCAL_ACC_R][HIT_RESERVED] = 0
	L2_cache_stats_breakdown[LOCAL_ACC_R][MISS] = 0
	L2_cache_stats_breakdown[LOCAL_ACC_R][RESERVATION_FAIL] = 0
	L2_cache_stats_breakdown[LOCAL_ACC_R][SECTOR_MISS] = 0
	L2_cache_stats_breakdown[CONST_ACC_R][HIT] = 0
	L2_cache_stats_breakdown[CONST_ACC_R][HIT_RESERVED] = 0
	L2_cache_stats_breakdown[CONST_ACC_R][MISS] = 0
	L2_cache_stats_breakdown[CONST_ACC_R][RESERVATION_FAIL] = 0
	L2_cache_stats_breakdown[CONST_ACC_R][SECTOR_MISS] = 0
	L2_cache_stats_breakdown[TEXTURE_ACC_R][HIT] = 0
	L2_cache_stats_breakdown[TEXTURE_ACC_R][HIT_RESERVED] = 0
	L2_cache_stats_breakdown[TEXTURE_ACC_R][MISS] = 0
	L2_cache_stats_breakdown[TEXTURE_ACC_R][RESERVATION_FAIL] = 0
	L2_cache_stats_breakdown[TEXTURE_ACC_R][SECTOR_MISS] = 0
	L2_cache_stats_breakdown[GLOBAL_ACC_W][HIT] = 0
	L2_cache_stats_breakdown[GLOBAL_ACC_W][HIT_RESERVED] = 0
	L2_cache_stats_breakdown[GLOBAL_ACC_W][MISS] = 0
	L2_cache_stats_breakdown[GLOBAL_ACC_W][RESERVATION_FAIL] = 0
	L2_cache_stats_breakdown[GLOBAL_ACC_W][SECTOR_MISS] = 0
	L2_cache_stats_breakdown[LOCAL_ACC_W][HIT] = 3072
	L2_cache_stats_breakdown[LOCAL_ACC_W][HIT_RESERVED] = 0
	L2_cache_stats_breakdown[LOCAL_ACC_W][MISS] = 256
	L2_cache_stats_breakdown[LOCAL_ACC_W][RESERVATION_FAIL] = 0
	L2_cache_stats_breakdown[LOCAL_ACC_W][SECTOR_MISS] = 768
	L2_cache_stats_breakdown[L1_WRBK_ACC][HIT] = 0
	L2_cache_stats_breakdown[L1_WRBK_ACC][HIT_RESERVED] = 0
	L2_cache_stats_breakdown[L1_WRBK_ACC][MISS] = 0
	L2_cache_stats_breakdown[L1_WRBK_ACC][RESERVATION_FAIL] = 0
	L2_cache_stats_breakdown[L1_WRBK_ACC][SECTOR_MISS] = 0
	L2_cache_stats_breakdown[L2_WRBK_ACC][HIT] = 0
	L2_cache_stats_breakdown[L2_WRBK_ACC][HIT_RESERVED] = 0
	L2_cache_stats_breakdown[L2_WRBK_ACC][MISS] = 0
	L2_cache_stats_breakdown[L2_WRBK_ACC][RESERVATION_FAIL] = 0
	L2_cache_stats_breakdown[L2_WRBK_ACC][SECTOR_MISS] = 0
	L2_cache_stats_breakdown[INST_ACC_R][HIT] = 0
	L2_cache_stats_breakdown[INST_ACC_R][HIT_RESERVED] = 0
	L2_cache_stats_breakdown[INST_ACC_R][MISS] = 0
	L2_cache_stats_breakdown[INST_ACC_R][RESERVATION_FAIL] = 0
	L2_cache_stats_breakdown[INST_ACC_R][SECTOR_MISS] = 0
	L2_cache_stats_breakdown[L1_WR_ALLOC_R][HIT] = 0
	L2_cache_stats_breakdown[L1_WR_ALLOC_R][HIT_RESERVED] = 0
	L2_cache_stats_breakdown[L1_WR_ALLOC_R][MISS] = 0
	L2_cache_stats_breakdown[L1_WR_ALLOC_R][RESERVATION_FAIL] = 0
	L2_cache_stats_breakdown[L1_WR_ALLOC_R][SECTOR_MISS] = 0
	L2_cache_stats_breakdown[L2_WR_ALLOC_R][HIT] = 0
	L2_cache_stats_breakdown[L2_WR_ALLOC_R][HIT_RESERVED] = 0
	L2_cache_stats_breakdown[L2_WR_ALLOC_R][MISS] = 0
	L2_cache_stats_breakdown[L2_WR_ALLOC_R][RESERVATION_FAIL] = 0
	L2_cache_stats_breakdown[L2_WR_ALLOC_R][SECTOR_MISS] = 0
	L2_cache_stats_breakdown[GLOBAL_ACC_R][TOTAL_ACCESS] = 4114
	L2_cache_stats_breakdown[LOCAL_ACC_W][TOTAL_ACCESS] = 4096
L2_total_cache_reservation_fail_breakdown:
L2_cache_data_port_util = 0.000
L2_cache_fill_port_util = 0.000

icnt_total_pkts_mem_to_simt=8210
icnt_total_pkts_simt_to_mem=8210
LD_mem_lat_dist  0 0 0 0 0 0 0 0 0 0 0 0 0 0 0 0 0 0 0 0 0 0 0 0 0 0 0
ST_mem_lat_dist  0 0 0 0 0 0 0 0 0 0 0 0 0 0 0 0 0 0 0 0 0 0 0 0 0 0 0
----------------------------Interconnect-DETAILS--------------------------------
Req_Network_injected_packets_num = 8210
Req_Network_cycles = 908509
Req_Network_injected_packets_per_cycle =       0.0090 
Req_Network_conflicts_per_cycle =       0.0101
Req_Network_conflicts_per_cycle_util =       1.2986
Req_Bank_Level_Parallism =       1.1606
Req_Network_in_buffer_full_per_cycle =       0.0000
Req_Network_in_buffer_avg_util =       0.0168
Req_Network_out_buffer_full_per_cycle =       0.0000
Req_Network_out_buffer_avg_util =       0.0001

Reply_Network_injected_packets_num = 8210
Reply_Network_cycles = 908509
Reply_Network_injected_packets_per_cycle =        0.0090
Reply_Network_conflicts_per_cycle =        0.0000
Reply_Network_conflicts_per_cycle_util =       0.0025
Reply_Bank_Level_Parallism =       1.3741
Reply_Network_in_buffer_full_per_cycle =       0.0000
Reply_Network_in_buffer_avg_util =       0.0000
Reply_Network_out_buffer_full_per_cycle =       0.0000
Reply_Network_out_buffer_avg_util =       0.0001
----------------------------END-of-Interconnect-DETAILS-------------------------


gpgpu_simulation_time = 0 days, 0 hrs, 25 min, 29 sec (1529 sec)
gpgpu_simulation_rate = 78922 (inst/sec)
gpgpu_simulation_rate = 594 (cycle/sec)
gpgpu_silicon_slowdown = 1905723x
GPGPU-Sim: detected inactive GPU simulation thread
GPGPU-Sim PTX: Setting up arguments for 4 bytes starting at 0x7ffcdd0fff4c..
GPGPU-Sim PTX: Setting up arguments for 8 bytes starting at 0x7ffcdd0fff40..
GPGPU-Sim PTX: Setting up arguments for 8 bytes starting at 0x7ffcdd0fff38..
GPGPU-Sim PTX: Setting up arguments for 8 bytes starting at 0x7ffcdd0fff30..
GPGPU-Sim PTX: Setting up arguments for 4 bytes starting at 0x7ffcdd0fff48..

GPGPU-Sim PTX: cudaLaunch for 0x0x4123e6 (mode=performance simulation) on stream 1
GPGPU-Sim PTX: PDOM analysis already done for _Z25ethash_calculate_dag_itemjP8hash64_tmS0_j 
GPGPU-Sim PTX: pushing kernel '_Z25ethash_calculate_dag_itemjP8hash64_tmS0_j' to stream 1, gridDim= (4,1,1) blockDim = (256,1,1) 
GPGPU-Sim: synchronize waiting for inactive GPU simulation
GPGPU-Sim API: Stream Manager State
GPGPU-Sim API:    stream 1 has 1 operations
GPGPU-Sim API:       0 :  stream operation kernel
GPGPU-Sim uArch: Shader 8 bind to kernel 3 '_Z25ethash_calculate_dag_itemjP8hash64_tmS0_j'
GPGPU-Sim: Reconfigure L1 cache to 128KB
GPGPU-Sim uArch: Shader 9 bind to kernel 3 '_Z25ethash_calculate_dag_itemjP8hash64_tmS0_j'
GPGPU-Sim uArch: Shader 10 bind to kernel 3 '_Z25ethash_calculate_dag_itemjP8hash64_tmS0_j'
GPGPU-Sim uArch: Shader 11 bind to kernel 3 '_Z25ethash_calculate_dag_itemjP8hash64_tmS0_j'
