

        *** GPGPU-Sim Simulator Version 4.0.0  [build gpgpu-sim_git-commit-ffe0a1a00e984ecce9bf36e17ab94c4de0de8108_modified_0.0] ***


GPGPU-Sim PTX: simulation mode 0 (can change with PTX_SIM_MODE_FUNC environment variable:
               1=functional simulation only, 0=detailed performance simulator)
GPGPU-Sim PTX: overriding embedded ptx with ptx file (PTX_SIM_USE_PTX_FILE is set)
GPGPU-Sim: Configuration options:

-save_embedded_ptx                      0 # saves ptx files embedded in binary as <n>.ptx
-keep                                   0 # keep intermediate files created by GPGPU-Sim when interfacing with external programs
-gpgpu_ptx_save_converted_ptxplus                    0 # Saved converted ptxplus to a file
-gpgpu_occupancy_sm_number                   70 # The SM number to pass to ptxas when getting register usage for computing GPU occupancy. This parameter is required in the config.
-ptx_opcode_latency_int      4,13,4,5,145,21 # Opcode latencies for integers <ADD,MAX,MUL,MAD,DIV,SHFL>Default 1,1,19,25,145,32
-ptx_opcode_latency_fp          4,13,4,5,39 # Opcode latencies for single precision floating points <ADD,MAX,MUL,MAD,DIV>Default 1,1,1,1,30
-ptx_opcode_latency_dp         8,19,8,8,330 # Opcode latencies for double precision floating points <ADD,MAX,MUL,MAD,DIV>Default 8,8,8,8,335
-ptx_opcode_latency_sfu                  100 # Opcode latencies for SFU instructionsDefault 8
-ptx_opcode_latency_tesnor                   64 # Opcode latencies for Tensor instructionsDefault 64
-ptx_opcode_initiation_int          2,2,2,2,8,4 # Opcode initiation intervals for integers <ADD,MAX,MUL,MAD,DIV,SHFL>Default 1,1,4,4,32,4
-ptx_opcode_initiation_fp            2,2,2,2,4 # Opcode initiation intervals for single precision floating points <ADD,MAX,MUL,MAD,DIV>Default 1,1,1,1,5
-ptx_opcode_initiation_dp          4,4,4,4,130 # Opcode initiation intervals for double precision floating points <ADD,MAX,MUL,MAD,DIV>Default 8,8,8,8,130
-ptx_opcode_initiation_sfu                    8 # Opcode initiation intervals for sfu instructionsDefault 8
-ptx_opcode_initiation_tensor                   64 # Opcode initiation intervals for tensor instructionsDefault 64
-cdp_latency         7200,8000,100,12000,1600 # CDP API latency <cudaStreamCreateWithFlags, cudaGetParameterBufferV2_init_perWarp, cudaGetParameterBufferV2_perKernel, cudaLaunchDeviceV2_init_perWarp, cudaLaunchDevicV2_perKernel>Default 7200,8000,100,12000,1600
-network_mode                           2 # Interconnection network mode
-inter_config_file                   mesh # Interconnection network config file
-icnt_in_buffer_limit                  512 # in_buffer_limit
-icnt_out_buffer_limit                  512 # out_buffer_limit
-icnt_subnets                           2 # subnets
-icnt_arbiter_algo                      1 # arbiter_algo
-icnt_verbose                           0 # inct_verbose
-icnt_grant_cycles                      1 # grant_cycles
-gpgpu_ptx_use_cuobjdump                    1 # Use cuobjdump to extract ptx and sass from binaries
-gpgpu_experimental_lib_support                    0 # Try to extract code from cuda libraries [Broken because of unknown cudaGetExportTable]
-checkpoint_option                      0 #  checkpointing flag (0 = no checkpoint)
-checkpoint_kernel                      1 #  checkpointing during execution of which kernel (1- 1st kernel)
-checkpoint_CTA                         0 #  checkpointing after # of CTA (< less than total CTA)
-resume_option                          0 #  resume flag (0 = no resume)
-resume_kernel                          0 #  Resume from which kernel (1= 1st kernel)
-resume_CTA                             0 #  resume from which CTA 
-checkpoint_CTA_t                       0 #  resume from which CTA 
-checkpoint_insn_Y                      0 #  resume from which CTA 
-gpgpu_ptx_convert_to_ptxplus                    0 # Convert SASS (native ISA) to ptxplus and run ptxplus
-gpgpu_ptx_force_max_capability                   70 # Force maximum compute capability
-gpgpu_ptx_inst_debug_to_file                    0 # Dump executed instructions' debug information to file
-gpgpu_ptx_inst_debug_file       inst_debug.txt # Executed instructions' debug output file
-gpgpu_ptx_inst_debug_thread_uid                    1 # Thread UID for executed instructions' debug output
-gpgpu_n_mem_for_l2wb_pcommit                   32 # number of memory modules (e.g. memory controllers) in gpu
-gpgpu_n_sub_partition_per_mchannel_for_l2wb_pcommit                    2 # number of memory subpartition in each memory module
-gpgpu_dl2_bsize_for_l2wb_pcommit                  128 # default 128 bytes
-gpgpu_simd_model                       1 # 1 = post-dominator
-gpgpu_shader_core_pipeline              2048:32 # shader core pipeline config, i.e., {<nthread>:<warpsize>}
-gpgpu_tex_cache:l1  N:4:128:256,L:R:m:N:L,T:512:8,128:2 # per-shader L1 texture cache  (READ-ONLY) config  {<nsets>:<bsize>:<assoc>,<rep>:<wr>:<alloc>:<wr_alloc>,<mshr>:<N>:<merge>,<mq>:<rf>}
-gpgpu_const_cache:l1 N:128:64:8,L:R:f:N:L,S:2:64,4 # per-shader L1 constant memory cache  (READ-ONLY) config  {<nsets>:<bsize>:<assoc>,<rep>:<wr>:<alloc>:<wr_alloc>,<mshr>:<N>:<merge>,<mq>} 
-gpgpu_cache:il1     N:64:128:16,L:R:f:N:L,S:2:48,4 # shader L1 instruction cache config  {<nsets>:<bsize>:<assoc>,<rep>:<wr>:<alloc>:<wr_alloc>,<mshr>:<N>:<merge>,<mq>} 
-gpgpu_cache:dl1     S:1:128:256,L:L:s:N:L,A:256:8,16:0,32 # per-shader L1 data cache config  {<nsets>:<bsize>:<assoc>,<rep>:<wr>:<alloc>:<wr_alloc>,<mshr>:<N>:<merge>,<mq> | none}
-gpgpu_l1_banks                         4 # The number of L1 cache banks
-gpgpu_l1_banks_byte_interleaving                   32 # l1 banks byte interleaving granularity
-gpgpu_l1_banks_hashing_function                    0 # l1 banks hashing function
-gpgpu_l1_latency                      20 # L1 Hit Latency
-gpgpu_smem_latency                    20 # smem Latency
-gpgpu_cache:dl1PrefL1                 none # per-shader L1 data cache config  {<nsets>:<bsize>:<assoc>,<rep>:<wr>:<alloc>:<wr_alloc>,<mshr>:<N>:<merge>,<mq> | none}
-gpgpu_cache:dl1PrefShared                 none # per-shader L1 data cache config  {<nsets>:<bsize>:<assoc>,<rep>:<wr>:<alloc>:<wr_alloc>,<mshr>:<N>:<merge>,<mq> | none}
-gpgpu_gmem_skip_L1D                    0 # global memory access skip L1D cache (implements -Xptxas -dlcm=cg, default=no skip)
-gpgpu_perfect_mem                      0 # enable perfect memory mode (no cache miss)
-n_regfile_gating_group                    4 # group of lanes that should be read/written together)
-gpgpu_clock_gated_reg_file                    0 # enable clock gated reg file for power calculations
-gpgpu_clock_gated_lanes                    0 # enable clock gated lanes for power calculations
-gpgpu_shader_registers                65536 # Number of registers per shader core. Limits number of concurrent CTAs. (default 8192)
-gpgpu_registers_per_block                65536 # Maximum number of registers per CTA. (default 8192)
-gpgpu_ignore_resources_limitation                    0 # gpgpu_ignore_resources_limitation (default 0)
-gpgpu_shader_cta                      32 # Maximum number of concurrent CTAs in shader (default 8)
-gpgpu_num_cta_barriers                   16 # Maximum number of named barriers per CTA (default 16)
-gpgpu_n_clusters                      80 # number of processing clusters
-gpgpu_n_cores_per_cluster                    1 # number of simd cores per cluster
-gpgpu_n_cluster_ejection_buffer_size                   32 # number of packets in ejection buffer
-gpgpu_n_ldst_response_buffer_size                    2 # number of response packets in ld/st unit ejection buffer
-gpgpu_shmem_per_block                65536 # Size of shared memory per thread block or CTA (default 48kB)
-gpgpu_shmem_size                   98304 # Size of shared memory per shader core (default 16kB)
-gpgpu_adaptive_cache_config            536870913 # adaptive_cache_config
-gpgpu_shmem_sizeDefault                98304 # Size of shared memory per shader core (default 16kB)
-gpgpu_shmem_size_PrefL1                16384 # Size of shared memory per shader core (default 16kB)
-gpgpu_shmem_size_PrefShared                16384 # Size of shared memory per shader core (default 16kB)
-gpgpu_shmem_num_banks                   32 # Number of banks in the shared memory in each shader core (default 16)
-gpgpu_shmem_limited_broadcast                    0 # Limit shared memory to do one broadcast per cycle (default on)
-gpgpu_shmem_warp_parts                    1 # Number of portions a warp is divided into for shared memory bank conflict check 
-gpgpu_mem_unit_ports                    1 # The number of memory transactions allowed per core cycle
-gpgpu_shmem_warp_parts                    1 # Number of portions a warp is divided into for shared memory bank conflict check 
-gpgpu_warpdistro_shader                   -1 # Specify which shader core to collect the warp size distribution from
-gpgpu_warp_issue_shader                    0 # Specify which shader core to collect the warp issue distribution from
-gpgpu_local_mem_map                    1 # Mapping from local memory space address to simulated GPU physical address space (default = enabled)
-gpgpu_num_reg_banks                   16 # Number of register banks (default = 8)
-gpgpu_reg_bank_use_warp_id                    0 # Use warp ID in mapping registers to banks (default = off)
-gpgpu_sub_core_model                    1 # Sub Core Volta/Pascal model (default = off)
-gpgpu_enable_specialized_operand_collector                    0 # enable_specialized_operand_collector
-gpgpu_operand_collector_num_units_sp                    4 # number of collector units (default = 4)
-gpgpu_operand_collector_num_units_dp                    0 # number of collector units (default = 0)
-gpgpu_operand_collector_num_units_sfu                    4 # number of collector units (default = 4)
-gpgpu_operand_collector_num_units_int                    0 # number of collector units (default = 0)
-gpgpu_operand_collector_num_units_tensor_core                    4 # number of collector units (default = 4)
-gpgpu_operand_collector_num_units_mem                    2 # number of collector units (default = 2)
-gpgpu_operand_collector_num_units_gen                    8 # number of collector units (default = 0)
-gpgpu_operand_collector_num_in_ports_sp                    1 # number of collector unit in ports (default = 1)
-gpgpu_operand_collector_num_in_ports_dp                    0 # number of collector unit in ports (default = 0)
-gpgpu_operand_collector_num_in_ports_sfu                    1 # number of collector unit in ports (default = 1)
-gpgpu_operand_collector_num_in_ports_int                    0 # number of collector unit in ports (default = 0)
-gpgpu_operand_collector_num_in_ports_tensor_core                    1 # number of collector unit in ports (default = 1)
-gpgpu_operand_collector_num_in_ports_mem                    1 # number of collector unit in ports (default = 1)
-gpgpu_operand_collector_num_in_ports_gen                    8 # number of collector unit in ports (default = 0)
-gpgpu_operand_collector_num_out_ports_sp                    1 # number of collector unit in ports (default = 1)
-gpgpu_operand_collector_num_out_ports_dp                    0 # number of collector unit in ports (default = 0)
-gpgpu_operand_collector_num_out_ports_sfu                    1 # number of collector unit in ports (default = 1)
-gpgpu_operand_collector_num_out_ports_int                    0 # number of collector unit in ports (default = 0)
-gpgpu_operand_collector_num_out_ports_tensor_core                    1 # number of collector unit in ports (default = 1)
-gpgpu_operand_collector_num_out_ports_mem                    1 # number of collector unit in ports (default = 1)
-gpgpu_operand_collector_num_out_ports_gen                    8 # number of collector unit in ports (default = 0)
-gpgpu_coalesce_arch                   60 # Coalescing arch (GT200 = 13, Fermi = 20)
-gpgpu_num_sched_per_core                    4 # Number of warp schedulers per core
-gpgpu_max_insn_issue_per_warp                    1 # Max number of instructions that can be issued per warp in one cycle by scheduler (either 1 or 2)
-gpgpu_dual_issue_diff_exec_units                    1 # should dual issue use two different execution unit resources (Default = 1)
-gpgpu_simt_core_sim_order                    1 # Select the simulation order of cores in a cluster (0=Fix, 1=Round-Robin)
-gpgpu_pipeline_widths 4,4,4,4,4,4,4,4,4,4,8,4,4 # Pipeline widths ID_OC_SP,ID_OC_DP,ID_OC_INT,ID_OC_SFU,ID_OC_MEM,OC_EX_SP,OC_EX_DP,OC_EX_INT,OC_EX_SFU,OC_EX_MEM,EX_WB,ID_OC_TENSOR_CORE,OC_EX_TENSOR_CORE
-gpgpu_tensor_core_avail                    1 # Tensor Core Available (default=0)
-gpgpu_num_sp_units                     4 # Number of SP units (default=1)
-gpgpu_num_dp_units                     4 # Number of DP units (default=0)
-gpgpu_num_int_units                    4 # Number of INT units (default=0)
-gpgpu_num_sfu_units                    4 # Number of SF units (default=1)
-gpgpu_num_tensor_core_units                    4 # Number of tensor_core units (default=1)
-gpgpu_num_mem_units                    1 # Number if ldst units (default=1) WARNING: not hooked up to anything
-gpgpu_scheduler                      gto # Scheduler configuration: < lrr | gto | two_level_active > If two_level_active:<num_active_warps>:<inner_prioritization>:<outer_prioritization>For complete list of prioritization values see shader.h enum scheduler_prioritization_typeDefault: gto
-gpgpu_concurrent_kernel_sm                    0 # Support concurrent kernels on a SM (default = disabled)
-gpgpu_perfect_inst_const_cache                    1 # perfect inst and const cache mode, so all inst and const hits in the cache(default = disabled)
-gpgpu_inst_fetch_throughput                    4 # the number of fetched intruction per warp each cycle
-gpgpu_reg_file_port_throughput                    2 # the number ports of the register file
-specialized_unit_1         0,4,4,4,4,BRA # specialized unit config {<enabled>,<num_units>:<latency>:<initiation>,<ID_OC_SPEC>:<OC_EX_SPEC>,<NAME>}
-specialized_unit_2         0,4,4,4,4,BRA # specialized unit config {<enabled>,<num_units>:<latency>:<initiation>,<ID_OC_SPEC>:<OC_EX_SPEC>,<NAME>}
-specialized_unit_3         0,4,4,4,4,BRA # specialized unit config {<enabled>,<num_units>:<latency>:<initiation>,<ID_OC_SPEC>:<OC_EX_SPEC>,<NAME>}
-specialized_unit_4         0,4,4,4,4,BRA # specialized unit config {<enabled>,<num_units>:<latency>:<initiation>,<ID_OC_SPEC>:<OC_EX_SPEC>,<NAME>}
-specialized_unit_5         0,4,4,4,4,BRA # specialized unit config {<enabled>,<num_units>:<latency>:<initiation>,<ID_OC_SPEC>:<OC_EX_SPEC>,<NAME>}
-specialized_unit_6         0,4,4,4,4,BRA # specialized unit config {<enabled>,<num_units>:<latency>:<initiation>,<ID_OC_SPEC>:<OC_EX_SPEC>,<NAME>}
-specialized_unit_7         0,4,4,4,4,BRA # specialized unit config {<enabled>,<num_units>:<latency>:<initiation>,<ID_OC_SPEC>:<OC_EX_SPEC>,<NAME>}
-specialized_unit_8         0,4,4,4,4,BRA # specialized unit config {<enabled>,<num_units>:<latency>:<initiation>,<ID_OC_SPEC>:<OC_EX_SPEC>,<NAME>}
-gpgpu_perf_sim_memcpy                    1 # Fill the L2 cache on memcpy
-gpgpu_simple_dram_model                    0 # simple_dram_model with fixed latency and BW
-gpgpu_dram_scheduler                    1 # 0 = fifo, 1 = FR-FCFS (defaul)
-gpgpu_dram_partition_queues          64:64:64:64 # i2$:$2d:d2$:$2i
-l2_ideal                               0 # Use a ideal L2 cache that always hit
-gpgpu_cache:dl2     S:32:128:24,L:B:m:L:P,A:192:4,32:0,32 # unified banked L2 data cache config  {<nsets>:<bsize>:<assoc>,<rep>:<wr>:<alloc>:<wr_alloc>,<mshr>:<N>:<merge>,<mq>}
-gpgpu_cache:dl2_texture_only                    0 # L2 cache used for texture only
-gpgpu_n_mem                           32 # number of memory modules (e.g. memory controllers) in gpu
-gpgpu_n_sub_partition_per_mchannel                    2 # number of memory subpartition in each memory module
-gpgpu_n_mem_per_ctrlr                    1 # number of memory chips per memory controller
-gpgpu_memlatency_stat                   14 # track and display latency statistics 0x2 enables MC, 0x4 enables queue logs
-gpgpu_frfcfs_dram_sched_queue_size                   64 # 0 = unlimited (default); # entries per chip
-gpgpu_dram_return_queue_size                  192 # 0 = unlimited (default); # entries per chip
-gpgpu_dram_buswidth                   16 # default = 4 bytes (8 bytes per cycle at DDR)
-gpgpu_dram_burst_length                    2 # Burst length of each DRAM request (default = 4 data bus cycle)
-dram_data_command_freq_ratio                    2 # Frequency ratio between DRAM data bus and command bus (default = 2 times, i.e. DDR)
-gpgpu_dram_timing_opt nbk=16:CCD=1:RRD=3:RCD=12:RAS=28:RP=12:RC=40: CL=12:WL=2:CDLR=3:WR=10:nbkgrp=4:CCDL=2:RTPL=3 # DRAM timing parameters = {nbk:tCCD:tRRD:tRCD:tRAS:tRP:tRC:CL:WL:tCDLR:tWR:nbkgrp:tCCDL:tRTPL}
-gpgpu_l2_rop_latency                  160 # ROP queue latency (default 85)
-dram_latency                         150 # DRAM latency (default 30)
-dram_write_latency                   150 # DRAM write latency (default 100)
-dram_dual_bus_interface                    1 # dual_bus_interface (default = 0) 
-dram_bnk_indexing_policy                    0 # dram_bnk_indexing_policy (0 = normal indexing, 1 = Xoring with the higher bits) (Default = 0)
-dram_bnkgrp_indexing_policy                    1 # dram_bnkgrp_indexing_policy (0 = take higher bits, 1 = take lower bits) (Default = 0)
-dram_seperate_write_queue_enable                    0 # Seperate_Write_Queue_Enable
-dram_write_queue_size             32:28:16 # Write_Queue_Size
-dram_elimnate_rw_turnaround                    0 # elimnate_rw_turnaround i.e set tWTR and tRTW = 0
-icnt_flit_size                        40 # icnt_flit_size
-gpgpu_mem_addr_mapping dramid@8;00000000.00000000.00000000.00000000.0000RRRR.RRRRRRRR.RBBBCCCB.CCCSSSSS # mapping memory address to dram model {dramid@<start bit>;<memory address map>}
-gpgpu_mem_addr_test                    0 # run sweep test to check address mapping for aliased address
-gpgpu_mem_address_mask                    1 # 0 = old addressing mask, 1 = new addressing mask, 2 = new add. mask + flipped bank sel and chip sel bits
-gpgpu_memory_partition_indexing                    0 # 0 = no indexing, 1 = bitwise xoring, 2 = IPoly, 3 = custom indexing
-gpuwattch_xml_file         gpuwattch.xml # GPUWattch XML file
-power_simulation_enabled                    0 # Turn on power simulator (1=On, 0=Off)
-power_per_cycle_dump                    0 # Dump detailed power output each cycle
-power_trace_enabled                    0 # produce a file for the power trace (1=On, 0=Off)
-power_trace_zlevel                     6 # Compression level of the power trace output log (0=no comp, 9=highest)
-steady_power_levels_enabled                    0 # produce a file for the steady power levels (1=On, 0=Off)
-steady_state_definition                  8:4 # allowed deviation:number of samples
-gpgpu_max_cycle                        0 # terminates gpu simulation early (0 = no limit)
-gpgpu_max_insn                         0 # terminates gpu simulation early (0 = no limit)
-gpgpu_max_cta                          0 # terminates gpu simulation early (0 = no limit)
-gpgpu_max_completed_cta                 2048 # terminates gpu simulation early (0 = no limit)
-gpgpu_runtime_stat                   500 # display runtime statistics such as dram utilization {<freq>:<flag>}
-liveness_message_freq                    1 # Minimum number of seconds between simulation liveness messages (0 = always print)
-gpgpu_compute_capability_major                    7 # Major compute capability version number
-gpgpu_compute_capability_minor                    0 # Minor compute capability version number
-gpgpu_flush_l1_cache                    1 # Flush L1 cache at the end of each kernel call
-gpgpu_flush_l2_cache                    0 # Flush L2 cache at the end of each kernel call
-gpgpu_deadlock_detect                    1 # Stop the simulation at deadlock (1=on (default), 0=off)
-gpgpu_ptx_instruction_classification                    0 # if enabled will classify ptx instruction types per kernel (Max 255 kernels now)
-gpgpu_ptx_sim_mode                     0 # Select between Performance (default) or Functional simulation (1)
-gpgpu_clock_domains 1132.0:1132.0:1132.0:850.0 # Clock Domain Frequencies in MhZ {<Core Clock>:<ICNT Clock>:<L2 Clock>:<DRAM Clock>}
-gpgpu_max_concurrent_kernel                    8 # maximum kernels that can run concurrently on GPU
-gpgpu_cflog_interval                    0 # Interval between each snapshot in control flow logger
-visualizer_enabled               ef36522e2d45247004aa03edb85bd63f  /home/pli11/Videos/parboil_benchmark/parboil/benchmarks/stencil/build/nvm_default/stencil
Extracting PTX file and ptxas options    1: stencil.1.sm_70.ptx -arch=sm_70
      0 # Turn on visualizer output (1=On, 0=Off)
-visualizer_outputfile                 NULL # Specifies the output log file for visualizer
-visualizer_zlevel                      6 # Compression level of the visualizer output log (0=no comp, 9=highest)
-gpgpu_stack_size_limit                 1024 # GPU thread stack size
-gpgpu_heap_size_limit              8388608 # GPU malloc heap size 
-gpgpu_runtime_sync_depth_limit                    2 # GPU device runtime synchronize depth
-gpgpu_runtime_pending_launch_count_limit                 2048 # GPU device runtime pending launch count
-trace_enabled                          0 # Turn on traces
-trace_components                    none # comma seperated list of traces to enable. Complete list found in trace_streams.tup. Default none
-trace_sampling_core                    0 # The core which is printed using CORE_DPRINTF. Default 0
-trace_sampling_memory_partition                   -1 # The memory partition which is printed using MEMPART_DPRINTF. Default -1 (i.e. all)
-enable_ptx_file_line_stats                    1 # Turn on PTX source line statistic profiling. (1 = On)
-ptx_line_stats_filename gpgpu_inst_stats.txt # Output file for PTX source line statistics.
-gpgpu_kernel_launch_latency                 5000 # Kernel launch latency in cycles. Default: 0
-gpgpu_cdp_enabled                      0 # Turn on CDP
-gpgpu_TB_launch_latency                    0 # thread block launch latency in cycles. Default: 0
DRAM Timing Options:
nbk                                    16 # number of banks
CCD                                     1 # column to column delay
RRD                                     3 # minimal delay between activation of rows in different banks
RCD                                    12 # row to column delay
RAS                                    28 # time needed to activate row
RP                                     12 # time needed to precharge (deactivate) row
RC                                     40 # row cycle time
CDLR                                    3 # switching from write to read (changes tWTR)
WR                                     10 # last data-in to row precharge
CL                                     12 # CAS latency
WL                                      2 # Write latency
nbkgrp                                  4 # number of bank groups
CCDL                                    2 # column to column delay between accesses to different bank groups
RTPL                                    3 # read to precharge delay between accesses to different bank groups
Total number of memory sub partition = 64
addr_dec_mask[CHIP]  = 0000000000001f00 	high:13 low:8
addr_dec_mask[BK]    = 00000000000e2000 	high:20 low:13
addr_dec_mask[ROW]   = 00000001fff00000 	high:33 low:20
addr_dec_mask[COL]   = 000000000001c0ff 	high:17 low:0
addr_dec_mask[BURST] = 000000000000001f 	high:5 low:0
sub_partition_id_mask = 0000000000002000
GPGPU-Sim uArch: clock freqs: 1132000000.000000:1132000000.000000:1132000000.000000:850000000.000000
GPGPU-Sim uArch: clock periods: 0.00000000088339222615:0.00000000088339222615:0.00000000088339222615:0.00000000117647058824
*** Initializing Memory Statistics ***
GPGPU-Sim uArch: performance model initialization complete.
self exe links to: /home/pli11/Videos/parboil_benchmark/parboil/benchmarks/stencil/build/nvm_default/stencil
self exe links to: /home/pli11/Videos/parboil_benchmark/parboil/benchmarks/stencil/build/nvm_default/stencil
10.1
GPGPU-Sim PTX: __cudaRegisterFatBinary, fat_cubin_handle = 1, filename=default
self exe links to: /home/pli11/Videos/parboil_benchmark/parboil/benchmarks/stencil/build/nvm_default/stencil
Running md5sum using "md5sum /home/pli11/Videos/parboil_benchmark/parboil/benchmarks/stencil/build/nvm_default/stencil "
self exe links to: /home/pli11/Videos/parboil_benchmark/parboil/benchmarks/stencil/build/nvm_default/stencil
Extracting specific PTX file named stencil.1.sm_70.ptx 
GPGPU-Sim PTX: __cudaRegisterFunction _Z17naive_kernel_nvm5ffPfS_iii : hostFun 0x0x403527, fat_cubin_handle = 1
GPGPU-Sim PTX: Parsing stencil.1.sm_70.ptx
GPGPU-Sim PTX: allocating global region for "NVM_log" from 0x100 to 0x4000100 (global memory space)
GPGPU-Sim PTX: allocating global region for "NVM_flag" from 0x4000100 to 0x4400100 (global memory space)
GPGPU-Sim PTX: instruction assembly for function '_Z12naive_kernelffPfS_iii'...   done.
GPGPU-Sim PTX: instruction assembly for function '_Z17naive_kernel_nvmbffPfS_iii'...   done.
GPGPU-Sim PTX: instruction assembly for function '_Z17naive_kernel_nvmoffPfS_iii'...   done.
GPGPU-Sim PTX: instruction assembly for function '_Z17naive_kernel_nvmuffPfS_iii'...   done.
GPGPU-Sim PTX: instruction assembly for function '_Z17naive_kernel_nvm1ffPfS_iii'...   done.
GPGPU-Sim PTX: instruction assembly for function '_Z17naive_kernel_nvm2ffPfS_iii'...   done.
GPGPU-Sim PTX: instruction assembly for function '_Z17naive_kernel_nvmgffPfS_iii'...   done.
GPGPU-Sim PTX: instruction assembly for function '_Z17naive_kernel_nvm3ffPfS_iii'...   done.
GPGPU-Sim PTX: instruction assembly for function '_Z17naive_kernel_nvm4ffPfS_iii'...   done.
GPGPU-Sim PTX: instruction assembly for function '_Z17naive_kernel_nvmiffPfS_iii'...   done.
GPGPU-Sim PTX: instruction assembly for function '_Z17naive_kernel_nvm6ffPfS_iii'...   done.
GPGPU-Sim PTX: instruction assembly for function '_Z17naive_kernel_nvm5ffPfS_iii'...   done.
GPGPU-Sim PTX: finished parsing EMBEDDED .ptx file stencil.1.sm_70.ptx
GPGPU-Sim PTX: loading globals with explicit initializers... 
GPGPU-Sim PTX: finished loading globals (0 bytes total).
GPGPU-Sim PTX: loading constants with explicit initializers...  done.
GPGPU-Sim PTX: Loading PTXInfo from stencil.1.sm_70.ptx
GPGPU-Sim PTX: Kernel '_Z17naive_kernel_nvm5ffPfS_iii' : regs=21, lmem=0, smem=0, cmem=388
GPGPU-Sim PTX: Kernel '_Z17naive_kernel_nvm6ffPfS_iii' : regs=21, lmem=0, smem=0, cmem=388
GPGPU-Sim PTX: Kernel '_Z17naive_kernel_nvmiffPfS_iii' : regs=21, lmem=0, smem=0, cmem=388
GPGPU-Sim PTX: Kernel '_Z17naive_kernel_nvm4ffPfS_iii' : regs=23, lmem=0, smem=0, cmem=388
GPGPU-Sim PTX: Kernel '_Z17naive_kernel_nvm3ffPfS_iii' : regs=23, lmem=0, smem=0, cmem=388
GPGPU-Sim PTX: Kernel '_Z17naive_kernel_nvmgffPfS_iii' : regs=23, lmem=0, smem=0, cmem=388
GPGPU-Sim PTX: Kernel '_Z17naive_kernel_nvm2ffPfS_iii' : regs=22, lmem=0, smem=0, cmem=388
GPGPU-Sim PTX: Kernel '_Z17naive_kernel_nvm1ffPfS_iii' : regs=22, lmem=0, smem=0, cmem=388
GPGPU-Sim PTX: Kernel '_Z17naive_kernel_nvmuffPfS_iii' : regs=20, lmem=0, smem=0, cmem=388
GPGPU-Sim PTX: Kernel '_Z17naive_kernel_nvmoffPfS_iii' : regs=20, lmem=0, smem=0, cmem=388
GPGPU-Sim PTX: Kernel '_Z17naive_kernel_nvmbffPfS_iii' : regs=20, lmem=0, smem=0, cmem=388
GPGPU-Sim PTX: Kernel '_Z12naive_kernelffPfS_iii' : regs=20, lmem=0, smem=0, cmem=388
GPGPU-Sim PTX: __cudaRegisterFunction _Z17naive_kernel_nvm6ffPfS_iii : hostFun 0x0x40332e, fat_cubin_handle = 1
GPGPU-Sim PTX: __cudaRegisterFunction _Z17naive_kernel_nvmiffPfS_iii : hostFun 0x0x403135, fat_cubin_handle = 1
GPGPU-Sim PTX: __cudaRegisterFunction _Z17naive_kernel_nvm4ffPfS_iii : hostFun 0x0x402f3c, fat_cubin_handle = 1
GPGPU-Sim PTX: __cudaRegisterFunction _Z17naive_kernel_nvm3ffPfS_iii : hostFun 0x0x402d43, fat_cubin_handle = 1
GPGPU-Sim PTX: __cudaRegisterFunction _Z17naive_kernel_nvmgffPfS_iii : hostFun 0x0x402b4a, fat_cubin_handle = 1
GPGPU-Sim PTX: __cudaRegisterFunction _Z17naive_kernel_nvm2ffPfS_iii : hostFun 0x0x402951, fat_cubin_handle = 1
GPGPU-Sim PTX: __cudaRegisterFunction _Z17naive_kernel_nvm1ffPfS_iii : hostFun 0x0x402758, fat_cubin_handle = 1
GPGPU-Sim PTX: __cudaRegisterFunction _Z17naive_kernel_nvmuffPfS_iii : hostFun 0x0x40255f, fat_cubin_handle = 1
GPGPU-Sim PTX: __cudaRegisterFunction _Z17naive_kernel_nvmoffPfS_iii : hostFun 0x0x402366, fat_cubin_handle = 1
GPGPU-Sim PTX: __cudaRegisterFunction _Z17naive_kernel_nvmbffPfS_iii : hostFun 0x0x40216d, fat_cubin_handle = 1
GPGPU-Sim PTX: __cudaRegisterFunction _Z12naive_kernelffPfS_iii : hostFun 0x0x401f74, fat_cubin_handle = 1
GPGPU-Sim PTX: __cudaRegisterVar: hostVar = 0x6091c0; deviceAddress = NVM_log; deviceName = NVM_log
GPGPU-Sim PTX: __cudaRegisterVar: Registering const memory space of 67108864 bytes
GPGPU-Sim PTX registering global NVM_log hostVar to name mapping
GPGPU-Sim PTX: __cudaRegisterVar: hostVar = 0x46091c0; deviceAddress = NVM_flag; deviceName = NVM_flag
GPGPU-Sim PTX: __cudaRegisterVar: Registering const memory space of 4194304 bytes
GPGPU-Sim PTX registering global NVM_flag hostVar to name mapping
CUDA accelerated 7 points stencil codes****
Original version by Li-Wen Chang <lchang20@illinois.edu> and I-Jui Sung<sung10@illinois.edu>
This version maintained by Chris Rodrigues  ***********
GPGPU-Sim: synchronize waiting for inactive GPU simulation
GPGPU-Sim API: Stream Manager State
GPGPU-Sim: detected inactive GPU simulation thread
event update
GPGPU-Sim: synchronize waiting for inactive GPU simulation
GPGPU-Sim API: Stream Manager State
GPGPU-Sim: detected inactive GPU simulation thread
GPGPU-Sim PTX: Setting up arguments for 4 bytes starting at 0x7fffea3839dc..
GPGPU-Sim PTX: Setting up arguments for 4 bytes starting at 0x7fffea3839d8..
GPGPU-Sim PTX: Setting up arguments for 8 bytes starting at 0x7fffea3839d0..
GPGPU-Sim PTX: Setting up arguments for 8 bytes starting at 0x7fffea3839c8..
GPGPU-Sim PTX: Setting up arguments for 4 bytes starting at 0x7fffea3839c4..
GPGPU-Sim PTX: Setting up arguments for 4 bytes starting at 0x7fffea3839c0..
GPGPU-Sim PTX: Setting up arguments for 4 bytes starting at 0x7fffea3839bc..

GPGPU-Sim PTX: cudaLaunch for 0x0x401f74 (mode=performance simulation) on stream 0
GPGPU-Sim PTX: finding reconvergence points for '_Z12naive_kernelffPfS_iii'...
GPGPU-Sim PTX: Finding dominators for '_Z12naive_kernelffPfS_iii'...
GPGPU-Sim PTX: Finding immediate dominators for '_Z12naive_kernelffPfS_iii'...
GPGPU-Sim PTX: Finding postdominators for '_Z12naive_kernelffPfS_iii'...
GPGPU-Sim PTX: Finding immediate postdominators for '_Z12naive_kernelffPfS_iii'...
GPGPU-Sim PTX: pre-decoding instructions for '_Z12naive_kernelffPfS_iii'...
GPGPU-Sim PTX: reconvergence points for _Z12naive_kernelffPfS_iii...
GPGPU-Sim PTX:  1 (potential) branch divergence @  PC=0x040 (stencil.1.sm_70.ptx:41) @%p1 bra BB0_2;
GPGPU-Sim PTX:    immediate post dominator      @  PC=0x1b0 (stencil.1.sm_70.ptx:90) ret;
GPGPU-Sim PTX: ... end of reconvergence points for _Z12naive_kernelffPfS_iii
GPGPU-Sim PTX: ... done pre-decoding instructions for '_Z12naive_kernelffPfS_iii'.
GPGPU-Sim PTX: pushing kernel '_Z12naive_kernelffPfS_iii' to stream 0, gridDim= (510,62,1) blockDim = (511,1,1) 
GPGPU-Sim uArch: Shader 0 bind to kernel 1 '_Z12naive_kernelffPfS_iii'
GPGPU-Sim uArch: CTA/core = 4, limited by: threads
GPGPU-Sim: Reconfigure L1 cache to 128KB
GPGPU-Sim uArch: Shader 1 bind to kernel 1 '_Z12naive_kernelffPfS_iii'
GPGPU-Sim uArch: Shader 2 bind to kernel 1 '_Z12naive_kernelffPfS_iii'
GPGPU-Sim uArch: Shader 3 bind to kernel 1 '_Z12naive_kernelffPfS_iii'
GPGPU-Sim uArch: Shader 4 bind to kernel 1 '_Z12naive_kernelffPfS_iii'
GPGPU-Sim uArch: Shader 5 bind to kernel 1 '_Z12naive_kernelffPfS_iii'
GPGPU-Sim uArch: Shader 6 bind to kernel 1 '_Z12naive_kernelffPfS_iii'
GPGPU-Sim uArch: Shader 7 bind to kernel 1 '_Z12naive_kernelffPfS_iii'
GPGPU-Sim uArch: Shader 8 bind to kernel 1 '_Z12naive_kernelffPfS_iii'
GPGPU-Sim uArch: Shader 9 bind to kernel 1 '_Z12naive_kernelffPfS_iii'
GPGPU-Sim uArch: Shader 10 bind to kernel 1 '_Z12naive_kernelffPfS_iii'
GPGPU-Sim uArch: Shader 11 bind to kernel 1 '_Z12naive_kernelffPfS_iii'
GPGPU-Sim uArch: Shader 12 bind to kernel 1 '_Z12naive_kernelffPfS_iii'
GPGPU-Sim uArch: Shader 13 bind to kernel 1 '_Z12naive_kernelffPfS_iii'
GPGPU-Sim uArch: Shader 14 bind to kernel 1 '_Z12naive_kernelffPfS_iii'
GPGPU-Sim uArch: Shader 15 bind to kernel 1 '_Z12naive_kernelffPfS_iii'
GPGPU-Sim uArch: Shader 16 bind to kernel 1 '_Z12naive_kernelffPfS_iii'
GPGPU-Sim uArch: Shader 17 bind to kernel 1 '_Z12naive_kernelffPfS_iii'
GPGPU-Sim uArch: Shader 18 bind to kernel 1 '_Z12naive_kernelffPfS_iii'
GPGPU-Sim uArch: Shader 19 bind to kernel 1 '_Z12naive_kernelffPfS_iii'
GPGPU-Sim uArch: Shader 20 bind to kernel 1 '_Z12naive_kernelffPfS_iii'
GPGPU-Sim uArch: Shader 21 bind to kernel 1 '_Z12naive_kernelffPfS_iii'
GPGPU-Sim uArch: Shader 22 bind to kernel 1 '_Z12naive_kernelffPfS_iii'
GPGPU-Sim uArch: Shader 23 bind to kernel 1 '_Z12naive_kernelffPfS_iii'
GPGPU-Sim uArch: Shader 24 bind to kernel 1 '_Z12naive_kernelffPfS_iii'
GPGPU-Sim uArch: Shader 25 bind to kernel 1 '_Z12naive_kernelffPfS_iii'
GPGPU-Sim uArch: Shader 26 bind to kernel 1 '_Z12naive_kernelffPfS_iii'
GPGPU-Sim uArch: Shader 27 bind to kernel 1 '_Z12naive_kernelffPfS_iii'
GPGPU-Sim uArch: Shader 28 bind to kernel 1 '_Z12naive_kernelffPfS_iii'
GPGPU-Sim uArch: Shader 29 bind to kernel 1 '_Z12naive_kernelffPfS_iii'
GPGPU-Sim uArch: Shader 30 bind to kernel 1 '_Z12naive_kernelffPfS_iii'
GPGPU-Sim uArch: Shader 31 bind to kernel 1 '_Z12naive_kernelffPfS_iii'
GPGPU-Sim uArch: Shader 32 bind to kernel 1 '_Z12naive_kernelffPfS_iii'
GPGPU-Sim uArch: Shader 33 bind to kernel 1 '_Z12naive_kernelffPfS_iii'
GPGPU-Sim uArch: Shader 34 bind to kernel 1 '_Z12naive_kernelffPfS_iii'
GPGPU-Sim uArch: Shader 35 bind to kernel 1 '_Z12naive_kernelffPfS_iii'
GPGPU-Sim uArch: Shader 36 bind to kernel 1 '_Z12naive_kernelffPfS_iii'
GPGPU-Sim uArch: Shader 37 bind to kernel 1 '_Z12naive_kernelffPfS_iii'
GPGPU-Sim uArch: Shader 38 bind to kernel 1 '_Z12naive_kernelffPfS_iii'
GPGPU-Sim uArch: Shader 39 bind to kernel 1 '_Z12naive_kernelffPfS_iii'
GPGPU-Sim uArch: Shader 40 bind to kernel 1 '_Z12naive_kernelffPfS_iii'
GPGPU-Sim uArch: Shader 41 bind to kernel 1 '_Z12naive_kernelffPfS_iii'
GPGPU-Sim uArch: Shader 42 bind to kernel 1 '_Z12naive_kernelffPfS_iii'
GPGPU-Sim uArch: Shader 43 bind to kernel 1 '_Z12naive_kernelffPfS_iii'
GPGPU-Sim uArch: Shader 44 bind to kernel 1 '_Z12naive_kernelffPfS_iii'
GPGPU-Sim uArch: Shader 45 bind to kernel 1 '_Z12naive_kernelffPfS_iii'
GPGPU-Sim uArch: Shader 46 bind to kernel 1 '_Z12naive_kernelffPfS_iii'
GPGPU-Sim uArch: Shader 47 bind to kernel 1 '_Z12naive_kernelffPfS_iii'
GPGPU-Sim uArch: Shader 48 bind to kernel 1 '_Z12naive_kernelffPfS_iii'
GPGPU-Sim uArch: Shader 49 bind to kernel 1 '_Z12naive_kernelffPfS_iii'
GPGPU-Sim uArch: Shader 50 bind to kernel 1 '_Z12naive_kernelffPfS_iii'
GPGPU-Sim uArch: Shader 51 bind to kernel 1 '_Z12naive_kernelffPfS_iii'
GPGPU-Sim uArch: Shader 52 bind to kernel 1 '_Z12naive_kernelffPfS_iii'
GPGPU-Sim uArch: Shader 53 bind to kernel 1 '_Z12naive_kernelffPfS_iii'
GPGPU-Sim uArch: Shader 54 bind to kernel 1 '_Z12naive_kernelffPfS_iii'
GPGPU-Sim uArch: Shader 55 bind to kernel 1 '_Z12naive_kernelffPfS_iii'
GPGPU-Sim uArch: Shader 56 bind to kernel 1 '_Z12naive_kernelffPfS_iii'
GPGPU-Sim uArch: Shader 57 bind to kernel 1 '_Z12naive_kernelffPfS_iii'
GPGPU-Sim uArch: Shader 58 bind to kernel 1 '_Z12naive_kernelffPfS_iii'
GPGPU-Sim uArch: Shader 59 bind to kernel 1 '_Z12naive_kernelffPfS_iii'
GPGPU-Sim uArch: Shader 60 bind to kernel 1 '_Z12naive_kernelffPfS_iii'
GPGPU-Sim uArch: Shader 61 bind to kernel 1 '_Z12naive_kernelffPfS_iii'
GPGPU-Sim uArch: Shader 62 bind to kernel 1 '_Z12naive_kernelffPfS_iii'
GPGPU-Sim uArch: Shader 63 bind to kernel 1 '_Z12naive_kernelffPfS_iii'
GPGPU-Sim uArch: Shader 64 bind to kernel 1 '_Z12naive_kernelffPfS_iii'
GPGPU-Sim uArch: Shader 65 bind to kernel 1 '_Z12naive_kernelffPfS_iii'
GPGPU-Sim uArch: Shader 66 bind to kernel 1 '_Z12naive_kernelffPfS_iii'
GPGPU-Sim uArch: Shader 67 bind to kernel 1 '_Z12naive_kernelffPfS_iii'
GPGPU-Sim uArch: Shader 68 bind to kernel 1 '_Z12naive_kernelffPfS_iii'
GPGPU-Sim uArch: Shader 69 bind to kernel 1 '_Z12naive_kernelffPfS_iii'
GPGPU-Sim uArch: Shader 70 bind to kernel 1 '_Z12naive_kernelffPfS_iii'
GPGPU-Sim uArch: Shader 71 bind to kernel 1 '_Z12naive_kernelffPfS_iii'
GPGPU-Sim uArch: Shader 72 bind to kernel 1 '_Z12naive_kernelffPfS_iii'
GPGPU-Sim uArch: Shader 73 bind to kernel 1 '_Z12naive_kernelffPfS_iii'
GPGPU-Sim uArch: Shader 74 bind to kernel 1 '_Z12naive_kernelffPfS_iii'
GPGPU-Sim uArch: Shader 75 bind to kernel 1 '_Z12naive_kernelffPfS_iii'
GPGPU-Sim uArch: Shader 76 bind to kernel 1 '_Z12naive_kernelffPfS_iii'
GPGPU-Sim uArch: Shader 77 bind to kernel 1 '_Z12naive_kernelffPfS_iii'
GPGPU-Sim uArch: Shader 78 bind to kernel 1 '_Z12naive_kernelffPfS_iii'
GPGPU-Sim uArch: Shader 79 bind to kernel 1 '_Z12naive_kernelffPfS_iii'
kernel_name = _Z12naive_kernelffPfS_iii 
kernel_launch_uid = 1 
gpu_sim_cycle = 33561
gpu_sim_insn = 62351267
gpu_ipc =    1857.8489
gpu_tot_sim_cycle = 33561
gpu_tot_sim_insn = 62351267
gpu_tot_ipc =    1857.8489
gpu_tot_issued_cta = 2368
gpu_occupancy = 95.8065% 
gpu_tot_occupancy = 95.8065% 
max_total_param_size = 0
gpu_stall_dramfull = 12174
gpu_stall_icnt2sh    = 0
partiton_level_parallism =      25.3028
partiton_level_parallism_total  =      25.3028
partiton_level_parallism_util =      30.3065
partiton_level_parallism_util_total  =      30.3065
L2_BW  =     909.2406 GB/Sec
L2_BW_total  =     909.2406 GB/Sec
gpu_total_sim_rate=153953
############## bottleneck_stats #############
cycles: core 33561, icnt 33561, l2 33561, dram 25200
gpu_ipc	1857.849
gpu_tot_issued_cta = 2368, average cycles = 14
n_dram_writes	 0, n_dram_reads	 0
n_GLOBAL_ACC_R	 212267 
n_LOCAL_ACC_R	 0 
n_CONST_ACC_R	 0 
n_TEXTURE_ACC_R	 0 
n_GLOBAL_ACC_W	 0 
n_LOCAL_ACC_W	 0 
n_L1_WRBK_ACC	 0 
n_L2_WRBK_ACC	 16205 
n_L1_WR_ALLOC_R	 0 
n_L2_WR_ALLOC_R	 0 

n_sm	 80, n_schedulers	 4
scheduler util	0.186	80
L1D data util	1.389	80	1.528	66
L1D tag util	0.448	80	0.487	66
L2 data util	0.643	64	0.648	34
L2 tag util	0.392	64	0.396	32
n_l2_access	 843041
icnt s2m util	0.000	0	0.000	32	flits per packet: -nan
icnt m2s util	0.000	0	0.000	32	flits per packet: -nan
sum=0
n_mem	 32
dram util	0.343	32	0.346	16

latency_l1_hit:	6219080, num_l1_reqs:	310954
L1 hit latency:	20
latency_l2_hit:	205697700, num_l2_reqs:	496159
L2 hit latency:	414
latency_dram:	288789288, num_dram_reqs:	345873
DRAM latency:	834

n_reg	65536, n_smem	98304, n_thread	2048, n_tb	32
reg file	0.625
smem size	0.000
thread slot	1.000
TB slot    	0.125
L1I tag util	0.379	80	0.413	66

n_mem_pipe	1, n_sp_pipe	4, n_sfu_pipe	4
mem pipe util	0.190	80	0.207	66
sp pipe util	0.052	80	0.056	66
sfu pipe util	0.000	0	0.000	66
ldst mem cycle	0.000	0	0.000	66

smem port	0.000	0

n_reg_bank	16
reg port	0.106	16	0.115	6
L1D tag util	0.448	80	0.487	66
L1D fill util	0.264	80	0.290	66
n_l1d_mshr	4096
L1D mshr util	0.040	80
n_l1d_missq	16
L1D missq util	0.020	80
L1D hit rate	0.258
L1D miss rate	0.742
L1D rsfail rate	0.000
L2 tag util	0.392	64	0.396	32
L2 fill util	0.099	64	0.099	32
n_l2_mshr	192
n_l2_missq	32
L2 mshr util	0.136	64	0.141	19
L2 missq util	0.004	64	0.004	33
L2 hit rate	0.589
L2 miss rate	0.411
L2 rsfail rate	0.000

dram activity	0.505	32	0.517	10

load trans eff	0.935
load trans sz	32.000
load_useful_bytes 32024268, load_transaction_bytes 34250976, icnt_m2s_bytes 0
n_gmem_load_insns 251171, n_gmem_load_accesses 1070343
n_smem_access_insn 0, n_smem_accesses 0

tmp_counter/12	0.404

run 0.017, fetch 0.065, sync 0.064, control 0.000, data 0.825, struct 0.030
############ end_bottleneck_stats #############

========= Core cache stats =========
L1I_cache:
	L1I_total_cache_accesses = 0
	L1I_total_cache_misses = 0
	L1I_total_cache_pending_hits = 0
	L1I_total_cache_reservation_fails = 0
L1D_cache:
	L1D_cache_core[0]: Access = 13922, Miss = 10436, Miss_rate = 0.750, Pending_hits = 0, Reservation_fails = 0
	L1D_cache_core[1]: Access = 15143, Miss = 10915, Miss_rate = 0.721, Pending_hits = 0, Reservation_fails = 0
	L1D_cache_core[2]: Access = 15976, Miss = 11718, Miss_rate = 0.733, Pending_hits = 0, Reservation_fails = 0
	L1D_cache_core[3]: Access = 14314, Miss = 10846, Miss_rate = 0.758, Pending_hits = 0, Reservation_fails = 0
	L1D_cache_core[4]: Access = 15358, Miss = 11280, Miss_rate = 0.734, Pending_hits = 0, Reservation_fails = 0
	L1D_cache_core[5]: Access = 15628, Miss = 11550, Miss_rate = 0.739, Pending_hits = 0, Reservation_fails = 0
	L1D_cache_core[6]: Access = 14539, Miss = 10968, Miss_rate = 0.754, Pending_hits = 0, Reservation_fails = 0
	L1D_cache_core[7]: Access = 14323, Miss = 10811, Miss_rate = 0.755, Pending_hits = 0, Reservation_fails = 0
	L1D_cache_core[8]: Access = 14861, Miss = 10918, Miss_rate = 0.735, Pending_hits = 0, Reservation_fails = 0
	L1D_cache_core[9]: Access = 13955, Miss = 10533, Miss_rate = 0.755, Pending_hits = 0, Reservation_fails = 0
	L1D_cache_core[10]: Access = 14076, Miss = 10662, Miss_rate = 0.757, Pending_hits = 0, Reservation_fails = 0
	L1D_cache_core[11]: Access = 14814, Miss = 11076, Miss_rate = 0.748, Pending_hits = 0, Reservation_fails = 0
	L1D_cache_core[12]: Access = 15143, Miss = 11076, Miss_rate = 0.731, Pending_hits = 0, Reservation_fails = 0
	L1D_cache_core[13]: Access = 14502, Miss = 10988, Miss_rate = 0.758, Pending_hits = 0, Reservation_fails = 0
	L1D_cache_core[14]: Access = 15251, Miss = 11194, Miss_rate = 0.734, Pending_hits = 0, Reservation_fails = 0
	L1D_cache_core[15]: Access = 15023, Miss = 10973, Miss_rate = 0.730, Pending_hits = 0, Reservation_fails = 0
	L1D_cache_core[16]: Access = 15448, Miss = 11513, Miss_rate = 0.745, Pending_hits = 0, Reservation_fails = 0
	L1D_cache_core[17]: Access = 14837, Miss = 10924, Miss_rate = 0.736, Pending_hits = 0, Reservation_fails = 0
	L1D_cache_core[18]: Access = 14597, Miss = 10923, Miss_rate = 0.748, Pending_hits = 0, Reservation_fails = 0
	L1D_cache_core[19]: Access = 14330, Miss = 10889, Miss_rate = 0.760, Pending_hits = 0, Reservation_fails = 0
	L1D_cache_core[20]: Access = 14934, Miss = 11034, Miss_rate = 0.739, Pending_hits = 0, Reservation_fails = 0
	L1D_cache_core[21]: Access = 14766, Miss = 10972, Miss_rate = 0.743, Pending_hits = 0, Reservation_fails = 0
	L1D_cache_core[22]: Access = 15184, Miss = 11241, Miss_rate = 0.740, Pending_hits = 0, Reservation_fails = 0
	L1D_cache_core[23]: Access = 14596, Miss = 10735, Miss_rate = 0.735, Pending_hits = 0, Reservation_fails = 0
	L1D_cache_core[24]: Access = 14697, Miss = 11054, Miss_rate = 0.752, Pending_hits = 0, Reservation_fails = 0
	L1D_cache_core[25]: Access = 13925, Miss = 10383, Miss_rate = 0.746, Pending_hits = 0, Reservation_fails = 0
	L1D_cache_core[26]: Access = 15136, Miss = 11074, Miss_rate = 0.732, Pending_hits = 0, Reservation_fails = 0
	L1D_cache_core[27]: Access = 15190, Miss = 11238, Miss_rate = 0.740, Pending_hits = 0, Reservation_fails = 0
	L1D_cache_core[28]: Access = 14758, Miss = 10857, Miss_rate = 0.736, Pending_hits = 0, Reservation_fails = 0
	L1D_cache_core[29]: Access = 16004, Miss = 11658, Miss_rate = 0.728, Pending_hits = 0, Reservation_fails = 0
	L1D_cache_core[30]: Access = 14714, Miss = 11008, Miss_rate = 0.748, Pending_hits = 0, Reservation_fails = 0
	L1D_cache_core[31]: Access = 14523, Miss = 10897, Miss_rate = 0.750, Pending_hits = 0, Reservation_fails = 0
	L1D_cache_core[32]: Access = 15752, Miss = 11376, Miss_rate = 0.722, Pending_hits = 0, Reservation_fails = 0
	L1D_cache_core[33]: Access = 15140, Miss = 11110, Miss_rate = 0.734, Pending_hits = 0, Reservation_fails = 0
	L1D_cache_core[34]: Access = 15592, Miss = 11171, Miss_rate = 0.716, Pending_hits = 0, Reservation_fails = 0
	L1D_cache_core[35]: Access = 15804, Miss = 11732, Miss_rate = 0.742, Pending_hits = 0, Reservation_fails = 0
	L1D_cache_core[36]: Access = 14591, Miss = 10995, Miss_rate = 0.754, Pending_hits = 0, Reservation_fails = 0
	L1D_cache_core[37]: Access = 15407, Miss = 11115, Miss_rate = 0.721, Pending_hits = 0, Reservation_fails = 0
	L1D_cache_core[38]: Access = 14726, Miss = 11001, Miss_rate = 0.747, Pending_hits = 0, Reservation_fails = 0
	L1D_cache_core[39]: Access = 14746, Miss = 10919, Miss_rate = 0.740, Pending_hits = 0, Reservation_fails = 0
	L1D_cache_core[40]: Access = 14885, Miss = 11077, Miss_rate = 0.744, Pending_hits = 0, Reservation_fails = 0
	L1D_cache_core[41]: Access = 14113, Miss = 10710, Miss_rate = 0.759, Pending_hits = 0, Reservation_fails = 0
	L1D_cache_core[42]: Access = 14208, Miss = 10802, Miss_rate = 0.760, Pending_hits = 0, Reservation_fails = 0
	L1D_cache_core[43]: Access = 14465, Miss = 10933, Miss_rate = 0.756, Pending_hits = 0, Reservation_fails = 0
	L1D_cache_core[44]: Access = 14275, Miss = 10783, Miss_rate = 0.755, Pending_hits = 0, Reservation_fails = 0
	L1D_cache_core[45]: Access = 15204, Miss = 11258, Miss_rate = 0.740, Pending_hits = 0, Reservation_fails = 0
	L1D_cache_core[46]: Access = 14156, Miss = 10685, Miss_rate = 0.755, Pending_hits = 0, Reservation_fails = 0
	L1D_cache_core[47]: Access = 14788, Miss = 10856, Miss_rate = 0.734, Pending_hits = 0, Reservation_fails = 0
	L1D_cache_core[48]: Access = 15829, Miss = 11457, Miss_rate = 0.724, Pending_hits = 0, Reservation_fails = 0
	L1D_cache_core[49]: Access = 15224, Miss = 11270, Miss_rate = 0.740, Pending_hits = 0, Reservation_fails = 0
	L1D_cache_core[50]: Access = 15352, Miss = 11202, Miss_rate = 0.730, Pending_hits = 0, Reservation_fails = 0
	L1D_cache_core[51]: Access = 15224, Miss = 11275, Miss_rate = 0.741, Pending_hits = 0, Reservation_fails = 0
	L1D_cache_core[52]: Access = 14367, Miss = 10689, Miss_rate = 0.744, Pending_hits = 0, Reservation_fails = 0
	L1D_cache_core[53]: Access = 15356, Miss = 11401, Miss_rate = 0.742, Pending_hits = 0, Reservation_fails = 0
	L1D_cache_core[54]: Access = 14557, Miss = 10931, Miss_rate = 0.751, Pending_hits = 0, Reservation_fails = 0
	L1D_cache_core[55]: Access = 14683, Miss = 11016, Miss_rate = 0.750, Pending_hits = 0, Reservation_fails = 0
	L1D_cache_core[56]: Access = 15138, Miss = 11088, Miss_rate = 0.732, Pending_hits = 0, Reservation_fails = 0
	L1D_cache_core[57]: Access = 15254, Miss = 11034, Miss_rate = 0.723, Pending_hits = 0, Reservation_fails = 0
	L1D_cache_core[58]: Access = 15357, Miss = 11427, Miss_rate = 0.744, Pending_hits = 0, Reservation_fails = 0
	L1D_cache_core[59]: Access = 15104, Miss = 11162, Miss_rate = 0.739, Pending_hits = 0, Reservation_fails = 0
	L1D_cache_core[60]: Access = 14919, Miss = 10978, Miss_rate = 0.736, Pending_hits = 0, Reservation_fails = 0
	L1D_cache_core[61]: Access = 14748, Miss = 10929, Miss_rate = 0.741, Pending_hits = 0, Reservation_fails = 0
	L1D_cache_core[62]: Access = 14834, Miss = 11015, Miss_rate = 0.743, Pending_hits = 0, Reservation_fails = 0
	L1D_cache_core[63]: Access = 15953, Miss = 11822, Miss_rate = 0.741, Pending_hits = 0, Reservation_fails = 0
	L1D_cache_core[64]: Access = 15128, Miss = 11197, Miss_rate = 0.740, Pending_hits = 0, Reservation_fails = 0
	L1D_cache_core[65]: Access = 15294, Miss = 11355, Miss_rate = 0.742, Pending_hits = 0, Reservation_fails = 0
	L1D_cache_core[66]: Access = 16355, Miss = 12310, Miss_rate = 0.753, Pending_hits = 0, Reservation_fails = 0
	L1D_cache_core[67]: Access = 15936, Miss = 11785, Miss_rate = 0.740, Pending_hits = 0, Reservation_fails = 0
	L1D_cache_core[68]: Access = 14528, Miss = 10916, Miss_rate = 0.751, Pending_hits = 0, Reservation_fails = 0
	L1D_cache_core[69]: Access = 15395, Miss = 11037, Miss_rate = 0.717, Pending_hits = 0, Reservation_fails = 0
	L1D_cache_core[70]: Access = 15876, Miss = 11795, Miss_rate = 0.743, Pending_hits = 0, Reservation_fails = 0
	L1D_cache_core[71]: Access = 15929, Miss = 12004, Miss_rate = 0.754, Pending_hits = 0, Reservation_fails = 0
	L1D_cache_core[72]: Access = 15604, Miss = 11300, Miss_rate = 0.724, Pending_hits = 0, Reservation_fails = 0
	L1D_cache_core[73]: Access = 15284, Miss = 11204, Miss_rate = 0.733, Pending_hits = 0, Reservation_fails = 0
	L1D_cache_core[74]: Access = 15408, Miss = 11307, Miss_rate = 0.734, Pending_hits = 0, Reservation_fails = 0
	L1D_cache_core[75]: Access = 14153, Miss = 10759, Miss_rate = 0.760, Pending_hits = 0, Reservation_fails = 0
	L1D_cache_core[76]: Access = 16178, Miss = 11861, Miss_rate = 0.733, Pending_hits = 0, Reservation_fails = 0
	L1D_cache_core[77]: Access = 15963, Miss = 11930, Miss_rate = 0.747, Pending_hits = 0, Reservation_fails = 0
	L1D_cache_core[78]: Access = 15772, Miss = 11733, Miss_rate = 0.744, Pending_hits = 0, Reservation_fails = 0
	L1D_cache_core[79]: Access = 15991, Miss = 12002, Miss_rate = 0.751, Pending_hits = 0, Reservation_fails = 0
	L1D_total_cache_accesses = 1203012
	L1D_total_cache_misses = 892058
	L1D_total_cache_miss_rate = 0.7415
	L1D_total_cache_pending_hits = 0
	L1D_total_cache_reservation_fails = 0
	L1D_cache_data_port_util = 0.136
	L1D_cache_fill_port_util = 0.310
L1C_cache:
	L1C_total_cache_accesses = 0
	L1C_total_cache_misses = 0
	L1C_total_cache_pending_hits = 0
	L1C_total_cache_reservation_fails = 0
L1T_cache:
	L1T_total_cache_accesses = 0
	L1T_total_cache_misses = 0
	L1T_total_cache_pending_hits = 0
	L1T_total_cache_reservation_fails = 0

Total_core_cache_stats:
	Total_core_cache_stats_breakdown[GLOBAL_ACC_R][HIT] = 310954
	Total_core_cache_stats_breakdown[GLOBAL_ACC_R][HIT_RESERVED] = 0
	Total_core_cache_stats_breakdown[GLOBAL_ACC_R][MISS] = 664684
	Total_core_cache_stats_breakdown[GLOBAL_ACC_R][RESERVATION_FAIL] = 0
	Total_core_cache_stats_breakdown[GLOBAL_ACC_R][SECTOR_MISS] = 92321
	Total_core_cache_stats_breakdown[LOCAL_ACC_R][HIT] = 0
	Total_core_cache_stats_breakdown[LOCAL_ACC_R][HIT_RESERVED] = 0
	Total_core_cache_stats_breakdown[LOCAL_ACC_R][MISS] = 0
	Total_core_cache_stats_breakdown[LOCAL_ACC_R][RESERVATION_FAIL] = 0
	Total_core_cache_stats_breakdown[LOCAL_ACC_R][SECTOR_MISS] = 0
	Total_core_cache_stats_breakdown[CONST_ACC_R][HIT] = 0
	Total_core_cache_stats_breakdown[CONST_ACC_R][HIT_RESERVED] = 0
	Total_core_cache_stats_breakdown[CONST_ACC_R][MISS] = 0
	Total_core_cache_stats_breakdown[CONST_ACC_R][RESERVATION_FAIL] = 0
	Total_core_cache_stats_breakdown[CONST_ACC_R][SECTOR_MISS] = 0
	Total_core_cache_stats_breakdown[TEXTURE_ACC_R][HIT] = 0
	Total_core_cache_stats_breakdown[TEXTURE_ACC_R][HIT_RESERVED] = 0
	Total_core_cache_stats_breakdown[TEXTURE_ACC_R][MISS] = 0
	Total_core_cache_stats_breakdown[TEXTURE_ACC_R][RESERVATION_FAIL] = 0
	Total_core_cache_stats_breakdown[TEXTURE_ACC_R][SECTOR_MISS] = 0
	Total_core_cache_stats_breakdown[GLOBAL_ACC_W][HIT] = 0
	Total_core_cache_stats_breakdown[GLOBAL_ACC_W][HIT_RESERVED] = 0
	Total_core_cache_stats_breakdown[GLOBAL_ACC_W][MISS] = 135053
	Total_core_cache_stats_breakdown[GLOBAL_ACC_W][RESERVATION_FAIL] = 0
	Total_core_cache_stats_breakdown[GLOBAL_ACC_W][SECTOR_MISS] = 0
	Total_core_cache_stats_breakdown[LOCAL_ACC_W][HIT] = 0
	Total_core_cache_stats_breakdown[LOCAL_ACC_W][HIT_RESERVED] = 0
	Total_core_cache_stats_breakdown[LOCAL_ACC_W][MISS] = 0
	Total_core_cache_stats_breakdown[LOCAL_ACC_W][RESERVATION_FAIL] = 0
	Total_core_cache_stats_breakdown[LOCAL_ACC_W][SECTOR_MISS] = 0
	Total_core_cache_stats_breakdown[L1_WRBK_ACC][HIT] = 0
	Total_core_cache_stats_breakdown[L1_WRBK_ACC][HIT_RESERVED] = 0
	Total_core_cache_stats_breakdown[L1_WRBK_ACC][MISS] = 0
	Total_core_cache_stats_breakdown[L1_WRBK_ACC][RESERVATION_FAIL] = 0
	Total_core_cache_stats_breakdown[L1_WRBK_ACC][SECTOR_MISS] = 0
	Total_core_cache_stats_breakdown[L2_WRBK_ACC][HIT] = 0
	Total_core_cache_stats_breakdown[L2_WRBK_ACC][HIT_RESERVED] = 0
	Total_core_cache_stats_breakdown[L2_WRBK_ACC][MISS] = 0
	Total_core_cache_stats_breakdown[L2_WRBK_ACC][RESERVATION_FAIL] = 0
	Total_core_cache_stats_breakdown[L2_WRBK_ACC][SECTOR_MISS] = 0
	Total_core_cache_stats_breakdown[INST_ACC_R][HIT] = 0
	Total_core_cache_stats_breakdown[INST_ACC_R][HIT_RESERVED] = 0
	Total_core_cache_stats_breakdown[INST_ACC_R][MISS] = 0
	Total_core_cache_stats_breakdown[INST_ACC_R][RESERVATION_FAIL] = 0
	Total_core_cache_stats_breakdown[INST_ACC_R][SECTOR_MISS] = 0
	Total_core_cache_stats_breakdown[L1_WR_ALLOC_R][HIT] = 0
	Total_core_cache_stats_breakdown[L1_WR_ALLOC_R][HIT_RESERVED] = 0
	Total_core_cache_stats_breakdown[L1_WR_ALLOC_R][MISS] = 0
	Total_core_cache_stats_breakdown[L1_WR_ALLOC_R][RESERVATION_FAIL] = 0
	Total_core_cache_stats_breakdown[L1_WR_ALLOC_R][SECTOR_MISS] = 0
	Total_core_cache_stats_breakdown[L2_WR_ALLOC_R][HIT] = 0
	Total_core_cache_stats_breakdown[L2_WR_ALLOC_R][HIT_RESERVED] = 0
	Total_core_cache_stats_breakdown[L2_WR_ALLOC_R][MISS] = 0
	Total_core_cache_stats_breakdown[L2_WR_ALLOC_R][RESERVATION_FAIL] = 0
	Total_core_cache_stats_breakdown[L2_WR_ALLOC_R][SECTOR_MISS] = 0
	Total_core_cache_stats_breakdown[GLOBAL_ACC_R][TOTAL_ACCESS] = 1067959
	Total_core_cache_stats_breakdown[GLOBAL_ACC_W][TOTAL_ACCESS] = 135053

Total_core_cache_fail_stats:
Shader 0 warp_id issue ditsribution:
warp_id:
0, 1, 2, 3, 4, 5, 6, 7, 8, 9, 10, 11, 12, 13, 14, 15, 16, 17, 18, 19, 20, 21, 22, 23, 24, 25, 26, 27, 28, 29, 30, 31, 32, 33, 34, 35, 36, 37, 38, 39, 40, 41, 42, 43, 44, 45, 46, 47, 48, 49, 50, 51, 52, 53, 54, 55, 56, 57, 58, 59, 60, 61, 62, 63, 
distro:
377, 374, 376, 379, 374, 374, 374, 374, 368, 374, 368, 368, 368, 370, 368, 368, 368, 368, 368, 368, 368, 368, 368, 368, 368, 368, 368, 368, 368, 368, 368, 368, 363, 366, 363, 365, 363, 363, 363, 363, 363, 363, 363, 363, 363, 363, 363, 363, 363, 363, 363, 363, 363, 363, 363, 363, 359, 360, 355, 355, 355, 361, 355, 355, 
gpgpu_n_tot_thrd_icount = 63769280
gpgpu_n_tot_w_icount = 1992790
gpgpu_n_stall_shd_mem = 919531
gpgpu_n_mem_read_local = 0
gpgpu_n_mem_write_local = 0
gpgpu_n_mem_read_global = 719432
gpgpu_n_mem_write_global = 135043
gpgpu_n_mem_texture = 0
gpgpu_n_mem_const = 0
gpgpu_n_load_insn  = 7996693
gpgpu_n_store_insn = 1077871
gpgpu_n_shmem_insn = 0
gpgpu_n_sstarr_insn = 0
gpgpu_n_tex_insn = 0
gpgpu_n_const_mem_insn = 0
gpgpu_n_param_mem_insn = 7218614
gpgpu_n_shmem_bkconflict = 0
gpgpu_n_cache_bkconflict = 0
gpgpu_n_intrawarp_mshr_merge = 0
gpgpu_n_cmem_portconflict = 0
gpgpu_stall_shd_mem[c_mem][resource_stall] = 0
gpgpu_stall_shd_mem[s_mem][bk_conf] = 0
gpgpu_stall_shd_mem[gl_mem][resource_stall] = 919531
gpgpu_stall_shd_mem[gl_mem][coal_stall] = 0
gpgpu_stall_shd_mem[gl_mem][data_port_stall] = 0
gpu_reg_bank_conflict_stalls = 0
Warp Occupancy Distribution:
Stall:1874765	W0_Idle:9161	W0_Scoreboard:5258317	W1:0	W2:0	W3:0	W4:0	W5:0	W6:0	W7:0	W8:0	W9:0	W10:0	W11:0	W12:0	W13:0	W14:0	W15:0	W16:0	W17:0	W18:0	W19:0	W20:0	W21:0	W22:0	W23:0	W24:0	W25:0	W26:0	W27:0	W28:0	W29:0	W30:0	W31:226342	W32:1770615
single_issue_nums: WS0:499249	WS1:499213	WS2:499142	WS3:499353	
dual_issue_nums: WS0:0	WS1:0	WS2:0	WS3:0	
traffic_breakdown_coretomem[GLOBAL_ACC_R] = 5755456 {8:719432,}
traffic_breakdown_coretomem[GLOBAL_ACC_W] = 5401720 {40:135043,}
traffic_breakdown_memtocore[GLOBAL_ACC_R] = 28375720 {40:709393,}
traffic_breakdown_memtocore[GLOBAL_ACC_W] = 1061928 {8:132741,}
maxmflatency = 4614 
max_icnt2mem_latency = 3987 
maxmrqlatency = 754 
max_icnt2sh_latency = 382 
averagemflatency = 586 
avg_icnt2mem_latency = 339 
avg_mrq_latency = 44 
avg_icnt2sh_latency = 16 
mrq_lat_table:38000 	33171 	19245 	17417 	25579 	41947 	29702 	20055 	3242 	59 	0 	0 	0 	0 	0 	0 	0 	0 	0 	0 	0 	0 	0 	0 	0 	0 	0 	0 	0 	0 	0 	0 	
dq_lat_table:0 	0 	0 	0 	0 	0 	0 	0 	0 	0 	0 	0 	0 	0 	0 	0 	0 	0 	0 	0 	0 	0 	0 	0 	0 	0 	0 	0 	0 	0 	0 	0 	
mf_lat_table:0 	0 	0 	0 	0 	0 	0 	127573 	455555 	195023 	25360 	33599 	4989 	0 	0 	0 	0 	0 	0 	0 	0 	0 	0 	0 	0 	0 	0 	0 	0 	0 	0 	0 	
icnt2mem_lat_table:0 	0 	0 	0 	59598 	97831 	134184 	246743 	236367 	26098 	16526 	31841 	0 	0 	0 	0 	0 	0 	0 	0 	0 	0 	0 	0 	
icnt2sh_lat_table:0 	439392 	138278 	92779 	71435 	46431 	28473 	22234 	3077 	0 	0 	0 	0 	0 	0 	0 	0 	0 	0 	0 	0 	0 	0 	0 	
mf_lat_pw_table:0 	0 	0 	0 	0 	0 	0 	1 	38 	7 	4 	5 	1 	0 	0 	0 	0 	0 	0 	0 	0 	0 	0 	0 	0 	0 	0 	0 	0 	0 	0 	0 	
maximum concurrent accesses to same row:
dram[0]:        64        64        64        64        64        64        64        64        64        64        64        64        64        64        64        64 
dram[1]:        64        64        64        64        64        64        64        64        64        64        64        64        64        64        64        64 
dram[2]:        64        64        64        64        64        64        64        64        64        64        64        64        64        64        64        64 
dram[3]:        64        64        64        64        64        64        64        64        64        64        64        64        64        64        64        64 
dram[4]:        64        64        64        64        64        64        64        64        64        64        64        64        64        64        64        64 
dram[5]:        64        64        64        64        64        64        64        64        64        64        64        64        64        64        64        64 
dram[6]:        64        64        64        64        64        64        64        64        64        64        64        64        64        64        64        64 
dram[7]:        64        64        64        64        64        64        64        64        64        64        64        64        64        64        64        64 
dram[8]:        64        64        64        64        64        64        64        64        64        64        64        64        64        64        64        64 
dram[9]:        64        64        64        64        64        64        64        64        64        64        64        64        64        64        64        64 
dram[10]:        64        64        64        64        64        64        64        64        64        64        64        64        64        64        64        64 
dram[11]:        64        64        64        64        64        64        64        64        64        64        64        64        64        64        64        64 
dram[12]:        64        64        64        64        64        64        64        64        64        64        64        64        64        64        64        64 
dram[13]:        64        64        64        64        64        64        64        64        64        64        64        64        64        64        64        64 
dram[14]:        64        64        64        64        64        64        64        64        64        64        64        64        64        64        64        64 
dram[15]:        64        64        64        64        64        64        64        64        64        64        64        64        64        64        64        64 
dram[16]:        64        64        64        64        64        64        64        64        64        64        64        64        64        64        64        64 
dram[17]:        64        64        64        64        64        64        64        64        64        64        64        64        64        64        64        64 
dram[18]:        64        64        64        64        64        64        64        64        64        64        64        64        64        64        64        64 
dram[19]:        64        64        64        64        64        64        64        64        64        64        64        64        64        64        64        64 
dram[20]:        64        64        64        64        64        64        64        64        64        64        64        64        64        64        64        64 
dram[21]:        64        64        64        64        64        64        64        64        64        64        64        64        64        64        64        64 
dram[22]:        64        64        64        64        64        64        64        64        64        64        64        64        64        64        64        64 
dram[23]:        64        64        64        64        64        64        64        64        64        64        64        64        64        64        64        64 
dram[24]:        64        64        64        64        64        64        64        64        64        64        64        64        64        64        64        64 
dram[25]:        64        64        64        64        64        64        64        64        64        64        64        64        64        64        64        64 
dram[26]:        64        64        64        64        64        64        64        64        64        64        64        64        64        64        64        64 
dram[27]:        64        64        64        64        64        64        64        64        64        64        64        64        64        64        64        64 
dram[28]:        64        64        64        64        64        64        64        64        64        64        64        64        64        64        64        64 
dram[29]:        64        64        64        64        64        64        64        64        64        64        64        64        64        64        64        64 
dram[30]:        64        64        64        64        64        64        64        64        64        64        64        64        64        64        64        64 
dram[31]:        64        64        64        64        64        64        64        64        64        64        64        64        64        64        64        64 
maximum service time to same row:
dram[0]:      5927      6403      6599      6372      7028      7032      8080      8084      9150      9154      9172     12947     13482     13433     13776     13716 
dram[1]:      5855      6469      6642      6396      6856      6860      8151      8155      9211      9215      9232     12983     13499     13487     13771     13772 
dram[2]:      5997      6462      6622      6599      7260      7264      8443      8447      9555      9559      9577     12955     13545     13475     13818     13774 
dram[3]:      6278      6410      6600      6505      7291      7295      8301      8305      9484      9488      9507     12992     13505     13481     13863     13895 
dram[4]:      6500      6501      6617      6539      7482      7486      8582      8586      9946      9950      9969     12972     13636     13467     13856     13916 
dram[5]:      6429      6430      6679      6473      7544      7548      8652      8656      9705      9709      9728     13038     13587     13523     13850     14021 
dram[6]:      6650      6651      6669      6690      7794      7798      9005      9009     10118     10122     10139     13045     13575     13551     13893     14085 
dram[7]:      6681      6682      6699      6721      7865      7869      8863      8867      9886      9890      9909     13085     13622     13558     13969     14079 
dram[8]:      6325      6268      6455      6240      7031      7032      8083      8084      9152      9154     10998     13012     13514     13547     13855     13712 
dram[9]:      6308      6242      6424      6288      6859      6860      8154      8155      9214      9215     11004     13020     13511     13513     13869     13622 
dram[10]:      6337      6362      6473      6269      7263      7264      8445      8447      9557      9559     11067     13062     13571     13594     13908     13760 
dram[11]:      6389      6300      6487      6318      7293      7295      8304      8305      9487      9488     11039     13038     13533     13612     13891     13724 
dram[12]:      6500      6501      6546      6539      7485      7486      8585      8586      9949      9950     11097     13109     13616     13666     13963     13804 
dram[13]:      6429      6430      6561      6469      7546      7548      8654      8656      9708      9709     11110     13104     13582     13654     13943     13743 
dram[14]:      6650      6651      6689      6690      7797      7798      9007      9009     10121     10122     11134     13154     13591     13600     14121     13770 
dram[15]:      6681      6682      6719      6721      7867      7869      8866      8867      9889      9890     11074     13096     13543     13660     14017     13786 
dram[16]:      6100      6483      6323      6310      7031      7032      8083      8084      9152      9154     13015     12987     13482     13493     13867     13892 
dram[17]:      6157      6487      6383      6302      6859      6860      8154      8155      9214      9215     12980     12999     13419     13505     13823     13824 
dram[18]:      6109      6444      6374      6325      7263      7264      8445      8447      9557      9559     12827     13058     13506     13541     13899     13957 
dram[19]:      6278      6402      6317      6427      7293      7295      8304      8305      9487      9488     13003     13011     13502     13614     13908     13952 
dram[20]:      6500      6501      6538      6539      7485      7486      8585      8586      9949      9950     13148     13110     13616     13588     13924     14020 
dram[21]:      6429      6471      6468      6469      7546      7548      8654      8656      9708      9709     13133     13052     13565     13599     13980     14001 
dram[22]:      6650      6651      6689      6690      7797      7798      9007      9009     10121     10122     13197     13153     13675     13627     14005     14033 
dram[23]:      6681      6682      6719      6721      7867      7869      8866      8867      9889      9890     13177     13157     13579     13626     14025     14069 
dram[24]:      6277      6375      6139      6582      7031      7032      8083      8084      9152      9154     13038     13197     13461     13521     13858     13937 
dram[25]:      6337      6328      6222      6566      6859      6860      8154      8155      9214      9215     13026     13160     13455     13521     13782     13864 
dram[26]:      6322      6366      6215      6625      7263      7264      8445      8447      9557      9559     13022     13217     13498     13535     13854     13937 
dram[27]:      6278      6452      6317      6607      7293      7295      8304      8305      9487      9488     13082     13200     13523     13546     13808     13920 
dram[28]:      6500      6501      6538      6539      7485      7486      8585      8586      9949      9950     13138     13307     13553     13659     13919     14023 
dram[29]:      6451      6430      6468      6603      7546      7548      8654      8656      9708      9709     13180     13260     13542     13591     13896     13977 
dram[30]:      6650      6651      6689      6690      7797      7798      9007      9009     10121     10122     13208     13264     13592     13692     13973     14053 
dram[31]:      6681      6682      6719      6721      7867      7869      8866      8867      9889      9890     13196     13242     13628     13655     13944     14020 
average row accesses per activate:
dram[0]: 27.235294 40.333332 26.777779 24.250000 32.000000 32.000000 32.000000 32.000000 41.599998 34.666668 20.799999 23.111111 34.666668 26.000000 37.454544 34.166668 
dram[1]: 24.368422 40.416668 26.777779 24.250000 32.000000 32.000000 36.923077 36.923077 52.000000 52.000000 18.909090 23.111111 32.000000 20.799999 34.333332 40.900002 
dram[2]: 24.263159 40.500000 32.000000 24.100000 32.000000 32.000000 32.000000 31.600000 41.599998 34.666668 19.809525 26.000000 34.666668 24.470589 34.333332 33.916668 
dram[3]: 27.117647 40.500000 36.923077 30.187500 36.923077 36.923077 32.000000 32.000000 41.599998 34.666668 17.333334 24.470589 32.000000 18.086956 31.692308 40.799999 
dram[4]: 24.263159 48.599998 40.083332 40.083332 34.285713 34.285713 36.230770 36.307693 52.000000 41.599998 20.799999 21.894737 29.714285 19.809525 31.615385 36.909092 
dram[5]: 25.555555 40.500000 30.125000 26.722221 32.000000 32.000000 31.733334 31.733334 41.599998 34.666668 19.809525 26.000000 37.818180 18.909090 37.363636 40.700001 
dram[6]: 25.555555 34.714287 28.235294 24.049999 32.000000 32.000000 35.692307 36.307693 41.599998 41.599998 19.809525 23.111111 34.666668 20.799999 34.250000 40.599998 
dram[7]: 24.263159 40.500000 28.235294 26.722221 32.000000 32.000000 31.400000 31.466667 41.599998 41.599998 17.333334 26.000000 34.666668 18.909090 37.454544 36.909092 
dram[8]: 36.923077 40.083332 24.150000 26.722221 32.000000 32.000000 29.562500 31.400000 38.545456 34.666668 32.000000 19.809525 37.818180 34.666668 41.200001 31.384615 
dram[9]: 43.636364 40.083332 26.944445 26.833334 32.000000 32.000000 33.785713 35.769230 46.333332 41.599998 29.714285 23.111111 41.599998 29.714285 41.200001 29.285715 
dram[10]: 36.923077 43.636364 27.222221 26.722221 32.000000 32.000000 31.466667 30.666666 37.909092 34.666668 32.000000 20.799999 41.599998 29.714285 37.454544 29.214285 
dram[11]: 36.923077 43.636364 30.250000 30.125000 36.923077 36.923077 31.466667 30.933332 41.599998 34.666668 32.000000 21.894737 41.599998 29.714285 41.200001 34.083332 
dram[12]: 43.636364 53.333332 34.428570 34.357143 34.285713 34.285713 36.307693 35.692307 52.000000 41.599998 29.714285 23.111111 37.818180 34.666668 41.099998 31.384615 
dram[13]: 43.636364 43.636364 26.722221 28.235294 32.000000 32.000000 31.466667 30.666666 41.599998 34.666668 27.733334 18.909090 37.818180 34.666668 41.200001 29.142857 
dram[14]: 43.636364 43.636364 32.000000 25.263159 32.000000 32.000000 36.307693 35.076923 52.000000 41.599998 24.470589 23.111111 32.000000 29.714285 41.200001 27.200001 
dram[15]: 36.923077 43.636364 30.062500 32.000000 32.000000 32.000000 31.466667 30.666666 41.599998 34.666668 29.714285 20.799999 29.714285 34.666668 41.200001 31.384615 
dram[16]: 40.083332 40.083332 26.944445 30.625000 32.000000 32.000000 32.000000 31.466667 38.545456 41.599998 26.000000 24.470589 26.000000 34.666668 31.461538 31.384615 
dram[17]: 40.166668 43.636364 26.944445 26.944445 32.000000 32.000000 36.923077 36.307693 46.666668 41.599998 26.000000 26.000000 26.000000 37.818180 34.000000 29.142857 
dram[18]: 43.636364 43.636364 30.250000 24.450001 32.000000 32.000000 32.000000 31.333334 38.181820 41.599998 21.894737 26.000000 29.714285 34.666668 34.166668 31.384615 
dram[19]: 43.636364 43.636364 30.250000 30.437500 36.923077 36.923077 32.000000 31.466667 38.181820 34.666668 21.894737 24.470589 24.470589 37.818180 31.538462 29.142857 
dram[20]: 53.333332 53.333332 36.923077 34.500000 34.285713 34.285713 36.307693 36.000000 52.000000 52.000000 27.733334 26.000000 29.714285 34.666668 29.214285 29.142857 
dram[21]: 43.636364 43.636364 26.722221 26.944445 32.000000 32.000000 31.466667 31.000000 41.599998 34.666668 27.733334 23.111111 26.000000 34.666668 34.083332 31.384615 
dram[22]: 43.636364 43.636364 26.833334 26.888889 32.000000 32.000000 36.000000 35.692307 52.000000 52.000000 24.470589 26.000000 29.714285 37.818180 34.000000 29.142857 
dram[23]: 43.636364 43.636364 26.722221 30.250000 32.000000 32.000000 31.200001 30.666666 38.181820 41.599998 26.000000 26.000000 24.470589 32.000000 29.214285 29.071428 
dram[24]: 40.166668 36.923077 24.200001 24.299999 32.000000 32.000000 28.235294 31.466667 41.599998 34.666668 27.733334 37.818180 26.000000 34.666668 37.363636 30.384615 
dram[25]: 40.083332 32.000000 21.909090 24.299999 32.000000 32.000000 36.923077 36.000000 52.000000 41.599998 29.714285 32.000000 24.470589 32.000000 34.250000 28.214285 
dram[26]: 40.166668 36.923077 26.722221 27.000000 32.000000 32.000000 28.235294 31.200001 41.599998 41.599998 20.799999 34.666668 26.000000 32.000000 37.272728 30.153847 
dram[27]: 40.083332 32.000000 28.235294 26.944445 36.923077 36.923077 28.235294 31.333334 41.599998 34.666668 27.733334 29.714285 27.733334 34.666668 34.333332 30.153847 
dram[28]: 48.200001 43.636364 30.125000 34.500000 34.285713 34.285713 31.733334 35.692307 52.000000 52.000000 27.733334 41.599998 26.000000 34.666668 37.181820 30.230770 
dram[29]: 40.083332 36.923077 28.235294 26.833334 32.000000 32.000000 28.235294 30.933332 41.599998 34.666668 27.733334 32.000000 24.470589 29.714285 34.250000 30.230770 
dram[30]: 40.166668 36.923077 26.722221 26.777779 32.000000 32.000000 36.692307 35.692307 52.000000 52.000000 27.733334 32.000000 27.733334 34.666668 37.090908 27.785715 
dram[31]: 40.166668 32.000000 28.235294 24.150000 32.000000 32.000000 31.733334 30.933332 41.599998 41.599998 24.470589 32.000000 23.111111 32.000000 31.461538 32.583332 
average row locality = 228417/7161 = 31.897360
number of total memory accesses made:
dram[0]:         0         0         0         0         0         0         0         0         0         0         0         0         0         0         0         0 
dram[1]:         0         0         0         0         0         0         0         0         0         0         0         0         0         0         0         0 
dram[2]:         0         0         0         0         0         0         0         0         0         0         0         0         0         0         0         0 
dram[3]:         0         0         0         0         0         0         0         0         0         0         0         0         0         0         0         0 
dram[4]:         0         0         0         0         0         0         0         0         0         0         0         0         0         0         0         0 
dram[5]:         0         0         0         0         0         0         0         0         0         0         0         0         0         0         0         0 
dram[6]:         0         0         0         0         0         0         0         0         0         0         0         0         0         0         0         0 
dram[7]:         0         0         0         0         0         0         0         0         0         0         0         0         0         0         0         0 
dram[8]:         0         0         0         0         0         0         0         0         0         0         0         0         0         0         0         0 
dram[9]:         0         0         0         0         0         0         0         0         0         0         0         0         0         0         0         0 
dram[10]:         0         0         0         0         0         0         0         0         0         0         0         0         0         0         0         0 
dram[11]:         0         0         0         0         0         0         0         0         0         0         0         0         0         0         0         0 
dram[12]:         0         0         0         0         0         0         0         0         0         0         0         0         0         0         0         0 
dram[13]:         0         0         0         0         0         0         0         0         0         0         0         0         0         0         0         0 
dram[14]:         0         0         0         0         0         0         0         0         0         0         0         0         0         0         0         0 
dram[15]:         0         0         0         0         0         0         0         0         0         0         0         0         0         0         0         0 
dram[16]:         0         0         0         0         0         0         0         0         0         0         0         0         0         0         0         0 
dram[17]:         0         0         0         0         0         0         0         0         0         0         0         0         0         0         0         0 
dram[18]:         0         0         0         0         0         0         0         0         0         0         0         0         0         0         0         0 
dram[19]:         0         0         0         0         0         0         0         0         0         0         0         0         0         0         0         0 
dram[20]:         0         0         0         0         0         0         0         0         0         0         0         0         0         0         0         0 
dram[21]:         0         0         0         0         0         0         0         0         0         0         0         0         0         0         0         0 
dram[22]:         0         0         0         0         0         0         0         0         0         0         0         0         0         0         0         0 
dram[23]:         0         0         0         0         0         0         0         0         0         0         0         0         0         0         0         0 
dram[24]:         0         0         0         0         0         0         0         0         0         0         0         0         0         0         0         0 
dram[25]:         0         0         0         0         0         0         0         0         0         0         0         0         0         0         0         0 
dram[26]:         0         0         0         0         0         0         0         0         0         0         0         0         0         0         0         0 
dram[27]:         0         0         0         0         0         0         0         0         0         0         0         0         0         0         0         0 
dram[28]:         0         0         0         0         0         0         0         0         0         0         0         0         0         0         0         0 
dram[29]:         0         0         0         0         0         0         0         0         0         0         0         0         0         0         0         0 
dram[30]:         0         0         0         0         0         0         0         0         0         0         0         0         0         0         0         0 
dram[31]:         0         0         0         0         0         0         0         0         0         0         0         0         0         0         0         0 
total accesses: 0
min_bank_accesses = 0!
min_chip_accesses = 0!
number of total read accesses:
dram[0]:       432       448       448       448       448       448       448       448       384       384       384       384       384       384       384       384 
dram[1]:       432       448       448       448       448       448       448       448       384       384       384       384       384       384       384       384 
dram[2]:       432       448       448       448       448       448       448       443       384       384       384       384       384       384       384       384 
dram[3]:       432       448       448       448       448       448       448       448       384       384       384       384       384       384       384       384 
dram[4]:       432       448       448       448       448       448       442       440       384       384       384       384       384       384       384       384 
dram[5]:       432       448       448       448       448       448       444       444       384       384       384       384       384       384       384       384 
dram[6]:       432       448       448       448       448       448       432       440       384       384       384       384       384       384       384       384 
[...]
RTWc_limit = 3916 
CCDLc_limit = 2690 
rwq = 0 
CCDLc_limit_alone = 2041 
WTRc_limit_alone = 904 
RTWc_limit_alone = 3425 

Commands details: 
total_CMD = 25200 
n_nop = 16355 
Read = 6630 
Write = 0 
L2_Alloc = 0 
L2_WB = 2016 
n_act = 223 
n_pre = 207 
n_ref = 0 
n_req = 7138 
total_req = 8646 

Dual Bus Interface Util: 
issued_total_row = 430 
issued_total_col = 8646 
Row_Bus_Util =  0.017063 
CoL_Bus_Util = 0.343095 
Either_Row_CoL_Bus_Util = 0.350992 
Issued_on_Two_Bus_Simul_Util = 0.009167 
issued_two_Eff = 0.026116 
queue_avg = 8.995198 


dram_util_bins: 0 0 0 0 0 0 0 0 0 0
dram_eff_bins: 0 0 0 0 0 0 0 0 0 0
mrqq: max=64 avg=8.9952
Memory Partition 28: 
Cache L2_bank_056:

Cache L2_bank_057:

In Dram Latency Queue (total = 15): 
DRAM[28]: 16 bks, busW=16 BL=2 CL=12, tRRD=3 tCCD=1, tRCD=12 tRAS=28 tRP=12 tRC=40
n_cmd=25200 n_nop=16387 n_act=200 n_pre=184 n_ref_event=0 n_req=7126 n_rd=6620 n_rd_L2_A=0 n_write=0 n_wr_bk=2008 bw_util=0.3424
n_activity=14557 dram_eff=0.5927
bk0: 448a 23232i bk1: 448a 22863i bk2: 448a 22816i bk3: 448a 22736i bk4: 448a 23317i bk5: 448a 23270i bk6: 444a 23224i bk7: 432a 23184i bk8: 384a 23508i bk9: 384a 23178i bk10: 384a 23552i bk11: 384a 23442i bk12: 384a 23432i bk13: 384a 23170i bk14: 384a 23289i bk15: 368a 23191i 

------------------------------------------------------------------------

Row_Buffer_Locality = 0.971930
Row_Buffer_Locality_read = 0.975831
Row_Buffer_Locality_write = 0.920792
Bank_Level_Parallism = 3.027225
Bank_Level_Parallism_Col = 2.934149
Bank_Level_Parallism_Ready = 1.689847
write_to_read_ratio_blp_rw_average = 0.337152
GrpLevelPara = 2.261542 

BW Util details:
bwutil = 0.342381 
total_CMD = 25200 
util_bw = 8628 
Wasted_Col = 3760 
Wasted_Row = 468 
Idle = 12344 

BW Util Bottlenecks: 
RCDc_limit = 802 
RCDWRc_limit = 224 
WTRc_limit = 913 
RTWc_limit = 4189 
CCDLc_limit = 2648 
rwq = 0 
CCDLc_limit_alone = 2001 
WTRc_limit_alone = 811 
RTWc_limit_alone = 3644 

Commands details: 
total_CMD = 25200 
n_nop = 16387 
Read = 6620 
Write = 0 
L2_Alloc = 0 
L2_WB = 2008 
n_act = 200 
n_pre = 184 
n_ref = 0 
n_req = 7126 
total_req = 8628 

Dual Bus Interface Util: 
issued_total_row = 384 
issued_total_col = 8628 
Row_Bus_Util =  0.015238 
CoL_Bus_Util = 0.342381 
Either_Row_CoL_Bus_Util = 0.349722 
Issued_on_Two_Bus_Simul_Util = 0.007897 
issued_two_Eff = 0.022580 
queue_avg = 8.637698 


dram_util_bins: 0 0 0 0 0 0 0 0 0 0
dram_eff_bins: 0 0 0 0 0 0 0 0 0 0
mrqq: max=64 avg=8.6377
Memory Partition 29: 
Cache L2_bank_058:

Cache L2_bank_059:

In Dram Latency Queue (total = 19): 
DRAM[29]: 16 bks, busW=16 BL=2 CL=12, tRRD=3 tCCD=1, tRCD=12 tRAS=28 tRP=12 tRC=40
n_cmd=25200 n_nop=16369 n_act=228 n_pre=212 n_ref_event=0 n_req=7128 n_rd=6624 n_rd_L2_A=0 n_write=0 n_wr_bk=2016 bw_util=0.3429
n_activity=14572 dram_eff=0.5929
bk0: 448a 22657i bk1: 448a 22911i bk2: 448a 22735i bk3: 448a 22609i bk4: 448a 23482i bk5: 448a 23177i bk6: 448a 23313i bk7: 432a 23180i bk8: 384a 23446i bk9: 384a 23277i bk10: 384a 23806i bk11: 384a 23470i bk12: 384a 23319i bk13: 384a 23104i bk14: 384a 23206i bk15: 368a 23224i 

------------------------------------------------------------------------

Row_Buffer_Locality = 0.968013
Row_Buffer_Locality_read = 0.971467
Row_Buffer_Locality_write = 0.922619
Bank_Level_Parallism = 3.048105
Bank_Level_Parallism_Col = 2.906984
Bank_Level_Parallism_Ready = 1.655556
write_to_read_ratio_blp_rw_average = 0.318091
GrpLevelPara = 2.246973 

BW Util details:
bwutil = 0.342857 
total_CMD = 25200 
util_bw = 8640 
Wasted_Col = 3873 
Wasted_Row = 417 
Idle = 12270 

BW Util Bottlenecks: 
RCDc_limit = 925 
RCDWRc_limit = 194 
WTRc_limit = 1032 
RTWc_limit = 3835 
CCDLc_limit = 2886 
rwq = 0 
CCDLc_limit_alone = 2237 
WTRc_limit_alone = 885 
RTWc_limit_alone = 3333 

Commands details: 
total_CMD = 25200 
n_nop = 16369 
Read = 6624 
Write = 0 
L2_Alloc = 0 
L2_WB = 2016 
n_act = 228 
n_pre = 212 
n_ref = 0 
n_req = 7128 
total_req = 8640 

Dual Bus Interface Util: 
issued_total_row = 440 
issued_total_col = 8640 
Row_Bus_Util =  0.017460 
CoL_Bus_Util = 0.342857 
Either_Row_CoL_Bus_Util = 0.350437 
Issued_on_Two_Bus_Simul_Util = 0.009881 
issued_two_Eff = 0.028196 
queue_avg = 8.929484 


dram_util_bins: 0 0 0 0 0 0 0 0 0 0
dram_eff_bins: 0 0 0 0 0 0 0 0 0 0
mrqq: max=64 avg=8.92948
Memory Partition 30: 
Cache L2_bank_060:

Cache L2_bank_061:

In Dram Latency Queue (total = 9): 
DRAM[30]: 16 bks, busW=16 BL=2 CL=12, tRRD=3 tCCD=1, tRCD=12 tRAS=28 tRP=12 tRC=40
n_cmd=25200 n_nop=16414 n_act=213 n_pre=197 n_ref_event=0 n_req=7126 n_rd=6620 n_rd_L2_A=0 n_write=0 n_wr_bk=1981 bw_util=0.3413
n_activity=14439 dram_eff=0.5957
bk0: 448a 22870i bk1: 448a 22757i bk2: 448a 22568i bk3: 448a 22945i bk4: 448a 23354i bk5: 448a 23126i bk6: 444a 23470i bk7: 432a 23361i bk8: 384a 23214i bk9: 384a 23471i bk10: 384a 23921i bk11: 384a 23480i bk12: 384a 23629i bk13: 384a 23407i bk14: 384a 23390i bk15: 368a 23464i 

------------------------------------------------------------------------

Row_Buffer_Locality = 0.970080
Row_Buffer_Locality_read = 0.973569
Row_Buffer_Locality_write = 0.923695
Bank_Level_Parallism = 2.990371
Bank_Level_Parallism_Col = 2.871492
Bank_Level_Parallism_Ready = 1.594233
write_to_read_ratio_blp_rw_average = 0.334567
GrpLevelPara = 2.232562 

BW Util details:
bwutil = 0.341310 
total_CMD = 25200 
util_bw = 8601 
Wasted_Col = 3629 
Wasted_Row = 440 
Idle = 12530 

BW Util Bottlenecks: 
RCDc_limit = 853 
RCDWRc_limit = 204 
WTRc_limit = 839 
RTWc_limit = 3953 
CCDLc_limit = 2520 
rwq = 0 
CCDLc_limit_alone = 1931 
WTRc_limit_alone = 760 
RTWc_limit_alone = 3443 

Commands details: 
total_CMD = 25200 
n_nop = 16414 
Read = 6620 
Write = 0 
L2_Alloc = 0 
L2_WB = 1981 
n_act = 213 
n_pre = 197 
n_ref = 0 
n_req = 7126 
total_req = 8601 

Dual Bus Interface Util: 
issued_total_row = 410 
issued_total_col = 8601 
Row_Bus_Util =  0.016270 
CoL_Bus_Util = 0.341310 
Either_Row_CoL_Bus_Util = 0.348651 
Issued_on_Two_Bus_Simul_Util = 0.008929 
issued_two_Eff = 0.025609 
queue_avg = 8.292659 


dram_util_bins: 0 0 0 0 0 0 0 0 0 0
dram_eff_bins: 0 0 0 0 0 0 0 0 0 0
mrqq: max=64 avg=8.29266
Memory Partition 31: 
Cache L2_bank_062:

Cache L2_bank_063:

In Dram Latency Queue (total = 12): 
DRAM[31]: 16 bks, busW=16 BL=2 CL=12, tRRD=3 tCCD=1, tRCD=12 tRAS=28 tRP=12 tRC=40
n_cmd=25200 n_nop=16378 n_act=230 n_pre=214 n_ref_event=0 n_req=7121 n_rd=6620 n_rd_L2_A=0 n_write=0 n_wr_bk=1996 bw_util=0.3419
n_activity=14344 dram_eff=0.6007
bk0: 448a 22987i bk1: 448a 22838i bk2: 448a 22503i bk3: 448a 22634i bk4: 448a 23309i bk5: 448a 23383i bk6: 444a 23500i bk7: 432a 23294i bk8: 384a 23231i bk9: 384a 23587i bk10: 384a 23837i bk11: 384a 23555i bk12: 384a 23464i bk13: 384a 23244i bk14: 384a 23136i bk15: 368a 23174i 

------------------------------------------------------------------------

Row_Buffer_Locality = 0.967701
Row_Buffer_Locality_read = 0.971148
Row_Buffer_Locality_write = 0.922156
Bank_Level_Parallism = 3.033202
Bank_Level_Parallism_Col = 2.885591
Bank_Level_Parallism_Ready = 1.648677
write_to_read_ratio_blp_rw_average = 0.321347
GrpLevelPara = 2.237274 

BW Util details:
bwutil = 0.341905 
total_CMD = 25200 
util_bw = 8616 
Wasted_Col = 3719 
Wasted_Row = 405 
Idle = 12460 

BW Util Bottlenecks: 
RCDc_limit = 948 
RCDWRc_limit = 184 
WTRc_limit = 955 
RTWc_limit = 3709 
CCDLc_limit = 2760 
rwq = 0 
CCDLc_limit_alone = 2019 
WTRc_limit_alone = 776 
RTWc_limit_alone = 3147 

Commands details: 
total_CMD = 25200 
n_nop = 16378 
Read = 6620 
Write = 0 
L2_Alloc = 0 
L2_WB = 1996 
n_act = 230 
n_pre = 214 
n_ref = 0 
n_req = 7121 
total_req = 8616 

Dual Bus Interface Util: 
issued_total_row = 444 
issued_total_col = 8616 
Row_Bus_Util =  0.017619 
CoL_Bus_Util = 0.341905 
Either_Row_CoL_Bus_Util = 0.350079 
Issued_on_Two_Bus_Simul_Util = 0.009444 
issued_two_Eff = 0.026978 
queue_avg = 8.517381 


dram_util_bins: 0 0 0 0 0 0 0 0 0 0
dram_eff_bins: 0 0 0 0 0 0 0 0 0 0
mrqq: max=64 avg=8.51738

========= L2 cache stats =========
L2_cache_bank[0]: Access = 13125, Miss = 5400, Miss_rate = 0.411, Pending_hits = 8, Reservation_fails = 0
L2_cache_bank[1]: Access = 13281, Miss = 5428, Miss_rate = 0.409, Pending_hits = 43, Reservation_fails = 0
L2_cache_bank[2]: Access = 13125, Miss = 5399, Miss_rate = 0.411, Pending_hits = 12, Reservation_fails = 0
L2_cache_bank[3]: Access = 13270, Miss = 5424, Miss_rate = 0.409, Pending_hits = 33, Reservation_fails = 0
L2_cache_bank[4]: Access = 13058, Miss = 5356, Miss_rate = 0.410, Pending_hits = 8, Reservation_fails = 0
L2_cache_bank[5]: Access = 13219, Miss = 5412, Miss_rate = 0.409, Pending_hits = 36, Reservation_fails = 0
L2_cache_bank[6]: Access = 13080, Miss = 5380, Miss_rate = 0.411, Pending_hits = 11, Reservation_fails = 0
L2_cache_bank[7]: Access = 13237, Miss = 5416, Miss_rate = 0.409, Pending_hits = 44, Reservation_fails = 0
L2_cache_bank[8]: Access = 13042, Miss = 5360, Miss_rate = 0.411, Pending_hits = 8, Reservation_fails = 0
L2_cache_bank[9]: Access = 13197, Miss = 5400, Miss_rate = 0.409, Pending_hits = 36, Reservation_fails = 0
L2_cache_bank[10]: Access = 13030, Miss = 5351, Miss_rate = 0.411, Pending_hits = 4, Reservation_fails = 0
L2_cache_bank[11]: Access = 13209, Miss = 5411, Miss_rate = 0.410, Pending_hits = 32, Reservation_fails = 0
L2_cache_bank[12]: Access = 13001, Miss = 5341, Miss_rate = 0.411, Pending_hits = 4, Reservation_fails = 0
L2_cache_bank[13]: Access = 13165, Miss = 5392, Miss_rate = 0.410, Pending_hits = 35, Reservation_fails = 0
L2_cache_bank[14]: Access = 13016, Miss = 5352, Miss_rate = 0.411, Pending_hits = 0, Reservation_fails = 0
L2_cache_bank[15]: Access = 13172, Miss = 5408, Miss_rate = 0.411, Pending_hits = 20, Reservation_fails = 0
L2_cache_bank[16]: Access = 13271, Miss = 5452, Miss_rate = 0.411, Pending_hits = 0, Reservation_fails = 0
L2_cache_bank[17]: Access = 13199, Miss = 5413, Miss_rate = 0.410, Pending_hits = 12, Reservation_fails = 0
L2_cache_bank[18]: Access = 13251, Miss = 5448, Miss_rate = 0.411, Pending_hits = 8, Reservation_fails = 0
L2_cache_bank[19]: Access = 13215, Miss = 5414, Miss_rate = 0.410, Pending_hits = 8, Reservation_fails = 0
L2_cache_bank[20]: Access = 13243, Miss = 5440, Miss_rate = 0.411, Pending_hits = 3, Reservation_fails = 0
L2_cache_bank[21]: Access = 13181, Miss = 5404, Miss_rate = 0.410, Pending_hits = 20, Reservation_fails = 0
L2_cache_bank[22]: Access = 13248, Miss = 5444, Miss_rate = 0.411, Pending_hits = 8, Reservation_fails = 0
L2_cache_bank[23]: Access = 13166, Miss = 5393, Miss_rate = 0.410, Pending_hits = 20, Reservation_fails = 0
L2_cache_bank[24]: Access = 13217, Miss = 5441, Miss_rate = 0.412, Pending_hits = 4, Reservation_fails = 0
L2_cache_bank[25]: Access = 13113, Miss = 5380, Miss_rate = 0.410, Pending_hits = 20, Reservation_fails = 0
L2_cache_bank[26]: Access = 13202, Miss = 5424, Miss_rate = 0.411, Pending_hits = 0, Reservation_fails = 0
L2_cache_bank[27]: Access = 13113, Miss = 5380, Miss_rate = 0.410, Pending_hits = 20, Reservation_fails = 0
L2_cache_bank[28]: Access = 13160, Miss = 5405, Miss_rate = 0.411, Pending_hits = 8, Reservation_fails = 0
L2_cache_bank[29]: Access = 13069, Miss = 5360, Miss_rate = 0.410, Pending_hits = 16, Reservation_fails = 0
L2_cache_bank[30]: Access = 13181, Miss = 5420, Miss_rate = 0.411, Pending_hits = 0, Reservation_fails = 0
L2_cache_bank[31]: Access = 13076, Miss = 5364, Miss_rate = 0.410, Pending_hits = 17, Reservation_fails = 0
L2_cache_bank[32]: Access = 13300, Miss = 5436, Miss_rate = 0.409, Pending_hits = 5, Reservation_fails = 0
L2_cache_bank[33]: Access = 13257, Miss = 5433, Miss_rate = 0.410, Pending_hits = 36, Reservation_fails = 0
L2_cache_bank[34]: Access = 13298, Miss = 5424, Miss_rate = 0.408, Pending_hits = 4, Reservation_fails = 0
L2_cache_bank[35]: Access = 13253, Miss = 5431, Miss_rate = 0.410, Pending_hits = 39, Reservation_fails = 0
L2_cache_bank[36]: Access = 13276, Miss = 5428, Miss_rate = 0.409, Pending_hits = 0, Reservation_fails = 0
L2_cache_bank[37]: Access = 13231, Miss = 5419, Miss_rate = 0.410, Pending_hits = 18, Reservation_fails = 0
L2_cache_bank[38]: Access = 13251, Miss = 5418, Miss_rate = 0.409, Pending_hits = 0, Reservation_fails = 0
L2_cache_bank[39]: Access = 13236, Miss = 5428, Miss_rate = 0.410, Pending_hits = 11, Reservation_fails = 0
L2_cache_bank[40]: Access = 13226, Miss = 5404, Miss_rate = 0.409, Pending_hits = 8, Reservation_fails = 0
L2_cache_bank[41]: Access = 13189, Miss = 5400, Miss_rate = 0.409, Pending_hits = 30, Reservation_fails = 0
L2_cache_bank[42]: Access = 13198, Miss = 5400, Miss_rate = 0.409, Pending_hits = 0, Reservation_fails = 0
L2_cache_bank[43]: Access = 13200, Miss = 5412, Miss_rate = 0.410, Pending_hits = 32, Reservation_fails = 0
L2_cache_bank[44]: Access = 13171, Miss = 5396, Miss_rate = 0.410, Pending_hits = 8, Reservation_fails = 0
L2_cache_bank[45]: Access = 13173, Miss = 5392, Miss_rate = 0.409, Pending_hits = 44, Reservation_fails = 0
L2_cache_bank[46]: Access = 13154, Miss = 5381, Miss_rate = 0.409, Pending_hits = 2, Reservation_fails = 0
L2_cache_bank[47]: Access = 13167, Miss = 5395, Miss_rate = 0.410, Pending_hits = 30, Reservation_fails = 0
L2_cache_bank[48]: Access = 13239, Miss = 5447, Miss_rate = 0.411, Pending_hits = 1, Reservation_fails = 0
L2_cache_bank[49]: Access = 13168, Miss = 5372, Miss_rate = 0.408, Pending_hits = 16, Reservation_fails = 0
L2_cache_bank[50]: Access = 13257, Miss = 5454, Miss_rate = 0.411, Pending_hits = 8, Reservation_fails = 0
L2_cache_bank[51]: Access = 13171, Miss = 5376, Miss_rate = 0.408, Pending_hits = 30, Reservation_fails = 0
L2_cache_bank[52]: Access = 13204, Miss = 5416, Miss_rate = 0.410, Pending_hits = 4, Reservation_fails = 0
L2_cache_bank[53]: Access = 13128, Miss = 5360, Miss_rate = 0.408, Pending_hits = 32, Reservation_fails = 0
L2_cache_bank[54]: Access = 13195, Miss = 5411, Miss_rate = 0.410, Pending_hits = 8, Reservation_fails = 0
L2_cache_bank[55]: Access = 13130, Miss = 5368, Miss_rate = 0.409, Pending_hits = 28, Reservation_fails = 0
L2_cache_bank[56]: Access = 13177, Miss = 5401, Miss_rate = 0.410, Pending_hits = 8, Reservation_fails = 0
L2_cache_bank[57]: Access = 13046, Miss = 5342, Miss_rate = 0.409, Pending_hits = 24, Reservation_fails = 0
L2_cache_bank[58]: Access = 13184, Miss = 5408, Miss_rate = 0.410, Pending_hits = 8, Reservation_fails = 0
L2_cache_bank[59]: Access = 13049, Miss = 5344, Miss_rate = 0.410, Pending_hits = 20, Reservation_fails = 0
L2_cache_bank[60]: Access = 13172, Miss = 5400, Miss_rate = 0.410, Pending_hits = 4, Reservation_fails = 0
L2_cache_bank[61]: Access = 13026, Miss = 5340, Miss_rate = 0.410, Pending_hits = 16, Reservation_fails = 0
L2_cache_bank[62]: Access = 13167, Miss = 5399, Miss_rate = 0.410, Pending_hits = 8, Reservation_fails = 0
L2_cache_bank[63]: Access = 13016, Miss = 5340, Miss_rate = 0.410, Pending_hits = 20, Reservation_fails = 0
L2_total_cache_accesses = 843041
L2_total_cache_misses = 345587
L2_total_cache_miss_rate = 0.4099
L2_total_cache_pending_hits = 1000
L2_total_cache_reservation_fails = 0
L2_total_cache_breakdown:
	L2_cache_stats_breakdown[GLOBAL_ACC_R][HIT] = 496454
	L2_cache_stats_breakdown[GLOBAL_ACC_R][HIT_RESERVED] = 1000
	L2_cache_stats_breakdown[GLOBAL_ACC_R][MISS] = 53192
	L2_cache_stats_breakdown[GLOBAL_ACC_R][RESERVATION_FAIL] = 0
	L2_cache_stats_breakdown[GLOBAL_ACC_R][SECTOR_MISS] = 159569
	L2_cache_stats_breakdown[LOCAL_ACC_R][HIT] = 0
	L2_cache_stats_breakdown[LOCAL_ACC_R][HIT_RESERVED] = 0
	L2_cache_stats_breakdown[LOCAL_ACC_R][MISS] = 0
	L2_cache_stats_breakdown[LOCAL_ACC_R][RESERVATION_FAIL] = 0
	L2_cache_stats_breakdown[LOCAL_ACC_R][SECTOR_MISS] = 0
	L2_cache_stats_breakdown[CONST_ACC_R][HIT] = 0
	L2_cache_stats_breakdown[CONST_ACC_R][HIT_RESERVED] = 0
	L2_cache_stats_breakdown[CONST_ACC_R][MISS] = 0
	L2_cache_stats_breakdown[CONST_ACC_R][RESERVATION_FAIL] = 0
	L2_cache_stats_breakdown[CONST_ACC_R][SECTOR_MISS] = 0
	L2_cache_stats_breakdown[TEXTURE_ACC_R][HIT] = 0
	L2_cache_stats_breakdown[TEXTURE_ACC_R][HIT_RESERVED] = 0
	L2_cache_stats_breakdown[TEXTURE_ACC_R][MISS] = 0
	L2_cache_stats_breakdown[TEXTURE_ACC_R][RESERVATION_FAIL] = 0
	L2_cache_stats_breakdown[TEXTURE_ACC_R][SECTOR_MISS] = 0
	L2_cache_stats_breakdown[GLOBAL_ACC_W][HIT] = 0
	L2_cache_stats_breakdown[GLOBAL_ACC_W][HIT_RESERVED] = 0
	L2_cache_stats_breakdown[GLOBAL_ACC_W][MISS] = 33218
	L2_cache_stats_breakdown[GLOBAL_ACC_W][RESERVATION_FAIL] = 0
	L2_cache_stats_breakdown[GLOBAL_ACC_W][SECTOR_MISS] = 99608
	L2_cache_stats_breakdown[LOCAL_ACC_W][HIT] = 0
	L2_cache_stats_breakdown[LOCAL_ACC_W][HIT_RESERVED] = 0
	L2_cache_stats_breakdown[LOCAL_ACC_W][MISS] = 0
	L2_cache_stats_breakdown[LOCAL_ACC_W][RESERVATION_FAIL] = 0
	L2_cache_stats_breakdown[LOCAL_ACC_W][SECTOR_MISS] = 0
	L2_cache_stats_breakdown[L1_WRBK_ACC][HIT] = 0
	L2_cache_stats_breakdown[L1_WRBK_ACC][HIT_RESERVED] = 0
	L2_cache_stats_breakdown[L1_WRBK_ACC][MISS] = 0
	L2_cache_stats_breakdown[L1_WRBK_ACC][RESERVATION_FAIL] = 0
	L2_cache_stats_breakdown[L1_WRBK_ACC][SECTOR_MISS] = 0
	L2_cache_stats_breakdown[L2_WRBK_ACC][HIT] = 0
	L2_cache_stats_breakdown[L2_WRBK_ACC][HIT_RESERVED] = 0
	L2_cache_stats_breakdown[L2_WRBK_ACC][MISS] = 0
	L2_cache_stats_breakdown[L2_WRBK_ACC][RESERVATION_FAIL] = 0
	L2_cache_stats_breakdown[L2_WRBK_ACC][SECTOR_MISS] = 0
	L2_cache_stats_breakdown[INST_ACC_R][HIT] = 0
	L2_cache_stats_breakdown[INST_ACC_R][HIT_RESERVED] = 0
	L2_cache_stats_breakdown[INST_ACC_R][MISS] = 0
	L2_cache_stats_breakdown[INST_ACC_R][RESERVATION_FAIL] = 0
	L2_cache_stats_breakdown[INST_ACC_R][SECTOR_MISS] = 0
	L2_cache_stats_breakdown[L1_WR_ALLOC_R][HIT] = 0
	L2_cache_stats_breakdown[L1_WR_ALLOC_R][HIT_RESERVED] = 0
	L2_cache_stats_breakdown[L1_WR_ALLOC_R][MISS] = 0
	L2_cache_stats_breakdown[L1_WR_ALLOC_R][RESERVATION_FAIL] = 0
	L2_cache_stats_breakdown[L1_WR_ALLOC_R][SECTOR_MISS] = 0
	L2_cache_stats_breakdown[L2_WR_ALLOC_R][HIT] = 0
	L2_cache_stats_breakdown[L2_WR_ALLOC_R][HIT_RESERVED] = 0
	L2_cache_stats_breakdown[L2_WR_ALLOC_R][MISS] = 0
	L2_cache_stats_breakdown[L2_WR_ALLOC_R][RESERVATION_FAIL] = 0
	L2_cache_stats_breakdown[L2_WR_ALLOC_R][SECTOR_MISS] = 0
	L2_cache_stats_breakdown[GLOBAL_ACC_R][TOTAL_ACCESS] = 710215
	L2_cache_stats_breakdown[GLOBAL_ACC_W][TOTAL_ACCESS] = 132826
L2_total_cache_reservation_fail_breakdown:
L2_cache_data_port_util = 0.246
L2_cache_fill_port_util = 0.099

icnt_total_pkts_mem_to_simt=842134
icnt_total_pkts_simt_to_mem=854475
LD_mem_lat_dist  0 0 0 0 0 0 0 0 0 0 0 0 0 0 0 0 0 0 0 0 0 0 0 0 0 0 0
ST_mem_lat_dist  0 0 0 0 0 0 0 0 0 0 0 0 0 0 0 0 0 0 0 0 0 0 0 0 0 0 0
----------------------------Interconnect-DETAILS--------------------------------
Req_Network_injected_packets_num = 854475
Req_Network_cycles = 33561
Req_Network_injected_packets_per_cycle =      25.4604 
Req_Network_conflicts_per_cycle =      34.7069
Req_Network_conflicts_per_cycle_util =      41.5687
Req_Bank_Level_Parallism =      30.3067
Req_Network_in_buffer_full_per_cycle =       0.0000
Req_Network_in_buffer_avg_util =      98.7041
Req_Network_out_buffer_full_per_cycle =       0.0000
Req_Network_out_buffer_avg_util =       1.0075

Reply_Network_injected_packets_num = 842398
Reply_Network_cycles = 33561
Reply_Network_injected_packets_per_cycle =       25.1005
Reply_Network_conflicts_per_cycle =       11.2201
Reply_Network_conflicts_per_cycle_util =      14.0256
Reply_Bank_Level_Parallism =      31.3682
Reply_Network_in_buffer_full_per_cycle =       0.0000
Reply_Network_in_buffer_avg_util =       5.5947
Reply_Network_out_buffer_full_per_cycle =       0.0000
Reply_Network_out_buffer_avg_util =       0.3137
----------------------------END-of-Interconnect-DETAILS-------------------------


gpgpu_simulation_time = 0 days, 0 hrs, 6 min, 45 sec (405 sec)
gpgpu_simulation_rate = 153953 (inst/sec)
gpgpu_simulation_rate = 82 (cycle/sec)
gpgpu_silicon_slowdown = 13804878x
GPGPU-Sim: *** simulation thread exiting ***
GPGPU-Sim: ** break due to reaching the maximum cycles (or instructions) **
GPGPU-Sim: *** exit detected ***
