

        *** GPGPU-Sim Simulator Version 4.0.0  [build gpgpu-sim_git-commit-ffe0a1a00e984ecce9bf36e17ab94c4de0de8108_modified_0.0] ***


GPGPU-Sim PTX: simulation mode 0 (can change with PTX_SIM_MODE_FUNC environment variable:
               1=functional simulation only, 0=detailed performance simulator)
GPGPU-Sim PTX: overriding embedded ptx with ptx file (PTX_SIM_USE_PTX_FILE is set)
GPGPU-Sim: Configuration options:

-save_embedded_ptx                      0 # saves ptx files embedded in binary as <n>.ptx
-keep                                   0 # keep intermediate files created by GPGPU-Sim when interfacing with external programs
-gpgpu_ptx_save_converted_ptxplus                    0 # Saved converted ptxplus to a file
-gpgpu_occupancy_sm_number                   70 # The SM number to pass to ptxas when getting register usage for computing GPU occupancy. This parameter is required in the config.
-ptx_opcode_latency_int      4,13,4,5,145,21 # Opcode latencies for integers <ADD,MAX,MUL,MAD,DIV,SHFL>Default 1,1,19,25,145,32
-ptx_opcode_latency_fp          4,13,4,5,39 # Opcode latencies for single precision floating points <ADD,MAX,MUL,MAD,DIV>Default 1,1,1,1,30
-ptx_opcode_latency_dp         8,19,8,8,330 # Opcode latencies for double precision floating points <ADD,MAX,MUL,MAD,DIV>Default 8,8,8,8,335
-ptx_opcode_latency_sfu                  100 # Opcode latencies for SFU instructionsDefault 8
-ptx_opcode_latency_tesnor                   64 # Opcode latencies for Tensor instructionsDefault 64
-ptx_opcode_initiation_int          2,2,2,2,8,4 # Opcode initiation intervals for integers <ADD,MAX,MUL,MAD,DIV,SHFL>Default 1,1,4,4,32,4
-ptx_opcode_initiation_fp            2,2,2,2,4 # Opcode initiation intervals for single precision floating points <ADD,MAX,MUL,MAD,DIV>Default 1,1,1,1,5
-ptx_opcode_initiation_dp          4,4,4,4,130 # Opcode initiation intervals for double precision floating points <ADD,MAX,MUL,MAD,DIV>Default 8,8,8,8,130
-ptx_opcode_initiation_sfu                    8 # Opcode initiation intervals for sfu instructionsDefault 8
-ptx_opcode_initiation_tensor                   64 # Opcode initiation intervals for tensor instructionsDefault 64
-cdp_latency         7200,8000,100,12000,1600 # CDP API latency <cudaStreamCreateWithFlags, cudaGetParameterBufferV2_init_perWarp, cudaGetParameterBufferV2_perKernel, cudaLaunchDeviceV2_init_perWarp, cudaLaunchDevicV2_perKernel>Default 7200,8000,100,12000,1600
-network_mode                           2 # Interconnection network mode
-inter_config_file                   mesh # Interconnection network config file
-icnt_in_buffer_limit                  512 # in_buffer_limit
-icnt_out_buffer_limit                  512 # out_buffer_limit
-icnt_subnets                           2 # subnets
-icnt_arbiter_algo                      1 # arbiter_algo
-icnt_verbose                           0 # inct_verbose
-icnt_grant_cycles                      1 # grant_cycles
-gpgpu_ptx_use_cuobjdump                    1 # Use cuobjdump to extract ptx and sass from binaries
-gpgpu_experimental_lib_support                    0 # Try to extract code from cuda libraries [Broken because of unknown cudaGetExportTable]
-checkpoint_option                      0 #  checkpointing flag (0 = no checkpoint)
-checkpoint_kernel                      1 #  checkpointing during execution of which kernel (1- 1st kernel)
-checkpoint_CTA                         0 #  checkpointing after # of CTA (< less than total CTA)
-resume_option                          0 #  resume flag (0 = no resume)
-resume_kernel                          0 #  Resume from which kernel (1= 1st kernel)
-resume_CTA                             0 #  resume from which CTA 
-checkpoint_CTA_t                       0 #  resume from which CTA 
-checkpoint_insn_Y                      0 #  resume from which CTA 
-gpgpu_ptx_convert_to_ptxplus                    0 # Convert SASS (native ISA) to ptxplus and run ptxplus
-gpgpu_ptx_force_max_capability                   70 # Force maximum compute capability
-gpgpu_ptx_inst_debug_to_file                    0 # Dump executed instructions' debug information to file
-gpgpu_ptx_inst_debug_file       inst_debug.txt # Executed instructions' debug output file
-gpgpu_ptx_inst_debug_thread_uid                    1 # Thread UID for executed instructions' debug output
-gpgpu_n_mem_for_l2wb_pcommit                   32 # number of memory modules (e.g. memory controllers) in gpu
-gpgpu_n_sub_partition_per_mchannel_for_l2wb_pcommit                    2 # number of memory subpartition in each memory module
-gpgpu_dl2_bsize_for_l2wb_pcommit                  128 # default 128 bytes
-gpgpu_simd_model                       1 # 1 = post-dominator
-gpgpu_shader_core_pipeline              2048:32 # shader core pipeline config, i.e., {<nthread>:<warpsize>}
-gpgpu_tex_cache:l1  N:4:128:256,L:R:m:N:L,T:512:8,128:2 # per-shader L1 texture cache  (READ-ONLY) config  {<nsets>:<bsize>:<assoc>,<rep>:<wr>:<alloc>:<wr_alloc>,<mshr>:<N>:<merge>,<mq>:<rf>}
-gpgpu_const_cache:l1 N:128:64:8,L:R:f:N:L,S:2:64,4 # per-shader L1 constant memory cache  (READ-ONLY) config  {<nsets>:<bsize>:<assoc>,<rep>:<wr>:<alloc>:<wr_alloc>,<mshr>:<N>:<merge>,<mq>} 
-gpgpu_cache:il1     N:64:128:16,L:R:f:N:L,S:2:48,4 # shader L1 instruction cache config  {<nsets>:<bsize>:<assoc>,<rep>:<wr>:<alloc>:<wr_alloc>,<mshr>:<N>:<merge>,<mq>} 
-gpgpu_cache:dl1     S:1:128:256,L:L:s:N:L,A:256:8,16:0,32 # per-shader L1 data cache config  {<nsets>:<bsize>:<assoc>,<rep>:<wr>:<alloc>:<wr_alloc>,<mshr>:<N>:<merge>,<mq> | none}
-gpgpu_l1_banks                         4 # The number of L1 cache banks
-gpgpu_l1_banks_byte_interleaving                   32 # l1 banks byte interleaving granularity
-gpgpu_l1_banks_hashing_function                    0 # l1 banks hashing function
-gpgpu_l1_latency                      20 # L1 Hit Latency
-gpgpu_smem_latency                    20 # smem Latency
-gpgpu_cache:dl1PrefL1                 none # per-shader L1 data cache config  {<nsets>:<bsize>:<assoc>,<rep>:<wr>:<alloc>:<wr_alloc>,<mshr>:<N>:<merge>,<mq> | none}
-gpgpu_cache:dl1PrefShared                 none # per-shader L1 data cache config  {<nsets>:<bsize>:<assoc>,<rep>:<wr>:<alloc>:<wr_alloc>,<mshr>:<N>:<merge>,<mq> | none}
-gpgpu_gmem_skip_L1D                    0 # global memory access skip L1D cache (implements -Xptxas -dlcm=cg, default=no skip)
-gpgpu_perfect_mem                      0 # enable perfect memory mode (no cache miss)
-n_regfile_gating_group                    4 # group of lanes that should be read/written together)
-gpgpu_clock_gated_reg_file                    0 # enable clock gated reg file for power calculations
-gpgpu_clock_gated_lanes                    0 # enable clock gated lanes for power calculations
-gpgpu_shader_registers                65536 # Number of registers per shader core. Limits number of concurrent CTAs. (default 8192)
-gpgpu_registers_per_block                65536 # Maximum number of registers per CTA. (default 8192)
-gpgpu_ignore_resources_limitation                    0 # gpgpu_ignore_resources_limitation (default 0)
-gpgpu_shader_cta                      32 # Maximum number of concurrent CTAs in shader (default 8)
-gpgpu_num_cta_barriers                   16 # Maximum number of named barriers per CTA (default 16)
-gpgpu_n_clusters                      80 # number of processing clusters
-gpgpu_n_cores_per_cluster                    1 # number of simd cores per cluster
-gpgpu_n_cluster_ejection_buffer_size                   32 # number of packets in ejection buffer
-gpgpu_n_ldst_response_buffer_size                    2 # number of response packets in ld/st unit ejection buffer
-gpgpu_shmem_per_block                65536 # Size of shared memory per thread block or CTA (default 48kB)
-gpgpu_shmem_size                   98304 # Size of shared memory per shader core (default 16kB)
-gpgpu_adaptive_cache_config            536870913 # adaptive_cache_config
-gpgpu_shmem_sizeDefault                98304 # Size of shared memory per shader core (default 16kB)
-gpgpu_shmem_size_PrefL1                16384 # Size of shared memory per shader core (default 16kB)
-gpgpu_shmem_size_PrefShared                16384 # Size of shared memory per shader core (default 16kB)
-gpgpu_shmem_num_banks                   32 # Number of banks in the shared memory in each shader core (default 16)
-gpgpu_shmem_limited_broadcast                    0 # Limit shared memory to do one broadcast per cycle (default on)
-gpgpu_shmem_warp_parts                    1 # Number of portions a warp is divided into for shared memory bank conflict check 
-gpgpu_mem_unit_ports                    1 # The number of memory transactions allowed per core cycle
-gpgpu_shmem_warp_parts                    1 # Number of portions a warp is divided into for shared memory bank conflict check 
-gpgpu_warpdistro_shader                   -1 # Specify which shader core to collect the warp size distribution from
-gpgpu_warp_issue_shader                    0 # Specify which shader core to collect the warp issue distribution from
-gpgpu_local_mem_map                    1 # Mapping from local memory space address to simulated GPU physical address space (default = enabled)
-gpgpu_num_reg_banks                   16 # Number of register banks (default = 8)
-gpgpu_reg_bank_use_warp_id                    0 # Use warp ID in mapping registers to banks (default = off)
-gpgpu_sub_core_model                    1 # Sub Core Volta/Pascal model (default = off)
-gpgpu_enable_specialized_operand_collector                    0 # enable_specialized_operand_collector
-gpgpu_operand_collector_num_units_sp                    4 # number of collector units (default = 4)
-gpgpu_operand_collector_num_units_dp                    0 # number of collector units (default = 0)
-gpgpu_operand_collector_num_units_sfu                    4 # number of collector units (default = 4)
-gpgpu_operand_collector_num_units_int                    0 # number of collector units (default = 0)
-gpgpu_operand_collector_num_units_tensor_core                    4 # number of collector units (default = 4)
-gpgpu_operand_collector_num_units_mem                    2 # number of collector units (default = 2)
-gpgpu_operand_collector_num_units_gen                    8 # number of collector units (default = 0)
-gpgpu_operand_collector_num_in_ports_sp                    1 # number of collector unit in ports (default = 1)
-gpgpu_operand_collector_num_in_ports_dp                    0 # number of collector unit in ports (default = 0)
-gpgpu_operand_collector_num_in_ports_sfu                    1 # number of collector unit in ports (default = 1)
-gpgpu_operand_collector_num_in_ports_int                    0 # number of collector unit in ports (default = 0)
-gpgpu_operand_collector_num_in_ports_tensor_core                    1 # number of collector unit in ports (default = 1)
-gpgpu_operand_collector_num_in_ports_mem                    1 # number of collector unit in ports (default = 1)
-gpgpu_operand_collector_num_in_ports_gen                    8 # number of collector unit in ports (default = 0)
-gpgpu_operand_collector_num_out_ports_sp                    1 # number of collector unit in ports (default = 1)
-gpgpu_operand_collector_num_out_ports_dp                    0 # number of collector unit in ports (default = 0)
-gpgpu_operand_collector_num_out_ports_sfu                    1 # number of collector unit in ports (default = 1)
-gpgpu_operand_collector_num_out_ports_int                    0 # number of collector unit in ports (default = 0)
-gpgpu_operand_collector_num_out_ports_tensor_core                    1 # number of collector unit in ports (default = 1)
-gpgpu_operand_collector_num_out_ports_mem                    1 # number of collector unit in ports (default = 1)
-gpgpu_operand_collector_num_out_ports_gen                    8 # number of collector unit in ports (default = 0)
-gpgpu_coalesce_arch                   60 # Coalescing arch (GT200 = 13, Fermi = 20)
-gpgpu_num_sched_per_core                    4 # Number of warp schedulers per core
-gpgpu_max_insn_issue_per_warp                    1 # Max number of instructions that can be issued per warp in one cycle by scheduler (either 1 or 2)
-gpgpu_dual_issue_diff_exec_units                    1 # should dual issue use two different execution unit resources (Default = 1)
-gpgpu_simt_core_sim_order                    1 # Select the simulation order of cores in a cluster (0=Fix, 1=Round-Robin)
-gpgpu_pipeline_widths 4,4,4,4,4,4,4,4,4,4,8,4,4 # Pipeline widths ID_OC_SP,ID_OC_DP,ID_OC_INT,ID_OC_SFU,ID_OC_MEM,OC_EX_SP,OC_EX_DP,OC_EX_INT,OC_EX_SFU,OC_EX_MEM,EX_WB,ID_OC_TENSOR_CORE,OC_EX_TENSOR_CORE
-gpgpu_tensor_core_avail                    1 # Tensor Core Available (default=0)
-gpgpu_num_sp_units                     4 # Number of SP units (default=1)
-gpgpu_num_dp_units                     4 # Number of DP units (default=0)
-gpgpu_num_int_units                    4 # Number of INT units (default=0)
-gpgpu_num_sfu_units                    4 # Number of SF units (default=1)
-gpgpu_num_tensor_core_units                    4 # Number of tensor_core units (default=1)
-gpgpu_num_mem_units                    1 # Number if ldst units (default=1) WARNING: not hooked up to anything
-gpgpu_scheduler                      gto # Scheduler configuration: < lrr | gto | two_level_active > If two_level_active:<num_active_warps>:<inner_prioritization>:<outer_prioritization>For complete list of prioritization values see shader.h enum scheduler_prioritization_typeDefault: gto
-gpgpu_concurrent_kernel_sm                    0 # Support concurrent kernels on a SM (default = disabled)
-gpgpu_perfect_inst_const_cache                    1 # perfect inst and const cache mode, so all inst and const hits in the cache(default = disabled)
-gpgpu_inst_fetch_throughput                    4 # the number of fetched intruction per warp each cycle
-gpgpu_reg_file_port_throughput                    2 # the number ports of the register file
-specialized_unit_1         0,4,4,4,4,BRA # specialized unit config {<enabled>,<num_units>:<latency>:<initiation>,<ID_OC_SPEC>:<OC_EX_SPEC>,<NAME>}
-specialized_unit_2         0,4,4,4,4,BRA # specialized unit config {<enabled>,<num_units>:<latency>:<initiation>,<ID_OC_SPEC>:<OC_EX_SPEC>,<NAME>}
-specialized_unit_3         0,4,4,4,4,BRA # specialized unit config {<enabled>,<num_units>:<latency>:<initiation>,<ID_OC_SPEC>:<OC_EX_SPEC>,<NAME>}
-specialized_unit_4         0,4,4,4,4,BRA # specialized unit config {<enabled>,<num_units>:<latency>:<initiation>,<ID_OC_SPEC>:<OC_EX_SPEC>,<NAME>}
-specialized_unit_5         0,4,4,4,4,BRA # specialized unit config {<enabled>,<num_units>:<latency>:<initiation>,<ID_OC_SPEC>:<OC_EX_SPEC>,<NAME>}
-specialized_unit_6         0,4,4,4,4,BRA # specialized unit config {<enabled>,<num_units>:<latency>:<initiation>,<ID_OC_SPEC>:<OC_EX_SPEC>,<NAME>}
-specialized_unit_7         0,4,4,4,4,BRA # specialized unit config {<enabled>,<num_units>:<latency>:<initiation>,<ID_OC_SPEC>:<OC_EX_SPEC>,<NAME>}
-specialized_unit_8         0,4,4,4,4,BRA # specialized unit config {<enabled>,<num_units>:<latency>:<initiation>,<ID_OC_SPEC>:<OC_EX_SPEC>,<NAME>}
-gpgpu_perf_sim_memcpy                    1 # Fill the L2 cache on memcpy
-gpgpu_simple_dram_model                    0 # simple_dram_model with fixed latency and BW
-gpgpu_dram_scheduler                    1 # 0 = fifo, 1 = FR-FCFS (defaul)
-gpgpu_dram_partition_queues          64:64:64:64 # i2$:$2d:d2$:$2i
-l2_ideal                               0 # Use a ideal L2 cache that always hit
-gpgpu_cache:dl2     S:32:128:24,L:B:m:L:P,A:192:4,32:0,32 # unified banked L2 data cache config  {<nsets>:<bsize>:<assoc>,<rep>:<wr>:<alloc>:<wr_alloc>,<mshr>:<N>:<merge>,<mq>}
-gpgpu_cache:dl2_texture_only                    0 # L2 cache used for texture only
-gpgpu_n_mem                           32 # number of memory modules (e.g. memory controllers) in gpu
-gpgpu_n_sub_partition_per_mchannel                    2 # number of memory subpartition in each memory module
-gpgpu_n_mem_per_ctrlr                    1 # number of memory chips per memory controller
-gpgpu_memlatency_stat                   14 # track and display latency statistics 0x2 enables MC, 0x4 enables queue logs
-gpgpu_frfcfs_dram_sched_queue_size                   64 # 0 = unlimited (default); # entries per chip
-gpgpu_dram_return_queue_size                  192 # 0 = unlimited (default); # entries per chip
-gpgpu_dram_buswidth                   16 # default = 4 bytes (8 bytes per cycle at DDR)
-gpgpu_dram_burst_length                    2 # Burst length of each DRAM request (default = 4 data bus cycle)
-dram_data_command_freq_ratio                    2 # Frequency ratio between DRAM data bus and command bus (default = 2 times, i.e. DDR)
-gpgpu_dram_timing_opt nbk=16:CCD=1:RRD=3:RCD=12:RAS=28:RP=12:RC=40: CL=12:WL=2:CDLR=3:WR=10:nbkgrp=4:CCDL=2:RTPL=3 # DRAM timing parameters = {nbk:tCCD:tRRD:tRCD:tRAS:tRP:tRC:CL:WL:tCDLR:tWR:nbkgrp:tCCDL:tRTPL}
-gpgpu_l2_rop_latency                  160 # ROP queue latency (default 85)
-dram_latency                         200 # DRAM latency (default 30)
-dram_write_latency                   600 # DRAM write latency (default 100)
-dram_dual_bus_interface                    1 # dual_bus_interface (default = 0) 
-dram_bnk_indexing_policy                    0 # dram_bnk_indexing_policy (0 = normal indexing, 1 = Xoring with the higher bits) (Default = 0)
-dram_bnkgrp_indexing_policy                    1 # dram_bnkgrp_indexing_policy (0 = take higher bits, 1 = take lower bits) (Default = 0)
-dram_seperate_write_queue_enable                    0 # Seperate_Write_Queue_Enable
-dram_write_queue_size             32:28:16 # Write_Queue_Size
-dram_elimnate_rw_turnaround                    0 # elimnate_rw_turnaround i.e set tWTR and tRTW = 0
-icnt_flit_size                        40 # icnt_flit_size
-gpgpu_mem_addr_mapping dramid@8;00000000.00000000.00000000.00000000.0000RRRR.RRRRRRRR.RBBBCCCB.CCCSSSSS # mapping memory address to dram model {dramid@<start bit>;<memory address map>}
-gpgpu_mem_addr_test                    0 # run sweep test to check address mapping for aliased address
-gpgpu_mem_address_mask                    1 # 0 = old addressing mask, 1 = new addressing mask, 2 = new add. mask + flipped bank sel and chip sel bits
-gpgpu_memory_partition_indexing                    0 # 0 = no indexing, 1 = bitwise xoring, 2 = IPoly, 3 = custom indexing
-gpuwattch_xml_file         gpuwattch.xml # GPUWattch XML file
-power_simulation_enabled                    0 # Turn on power simulator (1=On, 0=Off)
-power_per_cycle_dump                    0 # Dump detailed power output each cycle
-power_trace_enabled                    0 # produce a file for the power trace (1=On, 0=Off)
-power_trace_zlevel                     6 # Compression level of the power trace output log (0=no comp, 9=highest)
-steady_power_levels_enabled                    0 # produce a file for the steady power levels (1=On, 0=Off)
-steady_state_definition                  8:4 # allowed deviation:number of samples
-gpgpu_max_cycle                        0 # terminates gpu simulation early (0 = no limit)
-gpgpu_max_insn                         0 # terminates gpu simulation early (0 = no limit)
-gpgpu_max_cta                          0 # terminates gpu simulation early (0 = no limit)
-gpgpu_max_completed_cta                 2048 # terminates gpu simulation early (0 = no limit)
-gpgpu_runtime_stat                   500 # display runtime statistics such as dram utilization {<freq>:<flag>}
-liveness_message_freq                    1 # Minimum number of seconds between simulation liveness messages (0 = always print)
-gpgpu_compute_capability_major                    7 # Major compute capability version number
-gpgpu_compute_capability_minor                    0 # Minor compute capability version number
-gpgpu_flush_l1_cache                    1 # Flush L1 cache at the end of each kernel call
-gpgpu_flush_l2_cache                    0 # Flush L2 cache at the end of each kernel call
-gpgpu_deadlock_detect                    1 # Stop the simulation at deadlock (1=on (default), 0=off)
-gpgpu_ptx_instruction_classification                    0 # if enabled will classify ptx instruction types per kernel (Max 255 kernels now)
-gpgpu_ptx_sim_mode                     0 # Select between Performance (default) or Functional simulation (1)
-gpgpu_clock_domains 1132.0:1132.0:1132.0:850.0 # Clock Domain Frequencies in MhZ {<Core Clock>:<ICNT Clock>:<L2 Clock>:<DRAM Clock>}
-gpgpu_max_concurrent_kernel                    8 # maximum kernels that can run concurrently on GPU
-gpgpu_cflog_interval                    0 # Interval between each snapshot in control flow logger
-visualizer_enabled               ef36522e2d45247004aa03edb85bd63f  /home/pli11/Videos/parboil_benchmark/parboil/benchmarks/stencil/build/nvm_default/stencil
Extracting PTX file and ptxas options    1: stencil.1.sm_70.ptx -arch=sm_70
      0 # Turn on visualizer output (1=On, 0=Off)
-visualizer_outputfile                 NULL # Specifies the output log file for visualizer
-visualizer_zlevel                      6 # Compression level of the visualizer output log (0=no comp, 9=highest)
-gpgpu_stack_size_limit                 1024 # GPU thread stack size
-gpgpu_heap_size_limit              8388608 # GPU malloc heap size 
-gpgpu_runtime_sync_depth_limit                    2 # GPU device runtime synchronize depth
-gpgpu_runtime_pending_launch_count_limit                 2048 # GPU device runtime pending launch count
-trace_enabled                          0 # Turn on traces
-trace_components                    none # comma seperated list of traces to enable. Complete list found in trace_streams.tup. Default none
-trace_sampling_core                    0 # The core which is printed using CORE_DPRINTF. Default 0
-trace_sampling_memory_partition                   -1 # The memory partition which is printed using MEMPART_DPRINTF. Default -1 (i.e. all)
-enable_ptx_file_line_stats                    1 # Turn on PTX source line statistic profiling. (1 = On)
-ptx_line_stats_filename gpgpu_inst_stats.txt # Output file for PTX source line statistics.
-gpgpu_kernel_launch_latency                 5000 # Kernel launch latency in cycles. Default: 0
-gpgpu_cdp_enabled                      0 # Turn on CDP
-gpgpu_TB_launch_latency                    0 # thread block launch latency in cycles. Default: 0
DRAM Timing Options:
nbk                                    16 # number of banks
CCD                                     1 # column to column delay
RRD                                     3 # minimal delay between activation of rows in different banks
RCD                                    12 # row to column delay
RAS                                    28 # time needed to activate row
RP                                     12 # time needed to precharge (deactivate) row
RC                                     40 # row cycle time
CDLR                                    3 # switching from write to read (changes tWTR)
WR                                     10 # last data-in to row precharge
CL                                     12 # CAS latency
WL                                      2 # Write latency
nbkgrp                                  4 # number of bank groups
CCDL                                    2 # column to column delay between accesses to different bank groups
RTPL                                    3 # read to precharge delay between accesses to different bank groups
Total number of memory sub partition = 64
addr_dec_mask[CHIP]  = 0000000000001f00 	high:13 low:8
addr_dec_mask[BK]    = 00000000000e2000 	high:20 low:13
addr_dec_mask[ROW]   = 00000001fff00000 	high:33 low:20
addr_dec_mask[COL]   = 000000000001c0ff 	high:17 low:0
addr_dec_mask[BURST] = 000000000000001f 	high:5 low:0
sub_partition_id_mask = 0000000000002000
GPGPU-Sim uArch: clock freqs: 1132000000.000000:1132000000.000000:1132000000.000000:850000000.000000
GPGPU-Sim uArch: clock periods: 0.00000000088339222615:0.00000000088339222615:0.00000000088339222615:0.00000000117647058824
*** Initializing Memory Statistics ***
GPGPU-Sim uArch: performance model initialization complete.
self exe links to: /home/pli11/Videos/parboil_benchmark/parboil/benchmarks/stencil/build/nvm_default/stencil
self exe links to: /home/pli11/Videos/parboil_benchmark/parboil/benchmarks/stencil/build/nvm_default/stencil
10.1
GPGPU-Sim PTX: __cudaRegisterFatBinary, fat_cubin_handle = 1, filename=default
self exe links to: /home/pli11/Videos/parboil_benchmark/parboil/benchmarks/stencil/build/nvm_default/stencil
Running md5sum using "md5sum /home/pli11/Videos/parboil_benchmark/parboil/benchmarks/stencil/build/nvm_default/stencil "
self exe links to: /home/pli11/Videos/parboil_benchmark/parboil/benchmarks/stencil/build/nvm_default/stencil
Extracting specific PTX file named stencil.1.sm_70.ptx 
GPGPU-Sim PTX: __cudaRegisterFunction _Z17naive_kernel_nvm5ffPfS_iii : hostFun 0x0x403527, fat_cubin_handle = 1
GPGPU-Sim PTX: Parsing stencil.1.sm_70.ptx
GPGPU-Sim PTX: allocating global region for "NVM_log" from 0x100 to 0x4000100 (global memory space)
GPGPU-Sim PTX: allocating global region for "NVM_flag" from 0x4000100 to 0x4400100 (global memory space)
GPGPU-Sim PTX: instruction assembly for function '_Z12naive_kernelffPfS_iii'...   done.
GPGPU-Sim PTX: instruction assembly for function '_Z17naive_kernel_nvmbffPfS_iii'...   done.
GPGPU-Sim PTX: instruction assembly for function '_Z17naive_kernel_nvmoffPfS_iii'...   done.
GPGPU-Sim PTX: instruction assembly for function '_Z17naive_kernel_nvmuffPfS_iii'...   done.
GPGPU-Sim PTX: instruction assembly for function '_Z17naive_kernel_nvm1ffPfS_iii'...   done.
GPGPU-Sim PTX: instruction assembly for function '_Z17naive_kernel_nvm2ffPfS_iii'...   done.
GPGPU-Sim PTX: instruction assembly for function '_Z17naive_kernel_nvmgffPfS_iii'...   done.
GPGPU-Sim PTX: instruction assembly for function '_Z17naive_kernel_nvm3ffPfS_iii'...   done.
GPGPU-Sim PTX: instruction assembly for function '_Z17naive_kernel_nvm4ffPfS_iii'...   done.
GPGPU-Sim PTX: instruction assembly for function '_Z17naive_kernel_nvmiffPfS_iii'...   done.
GPGPU-Sim PTX: instruction assembly for function '_Z17naive_kernel_nvm6ffPfS_iii'...   done.
GPGPU-Sim PTX: instruction assembly for function '_Z17naive_kernel_nvm5ffPfS_iii'...   done.
GPGPU-Sim PTX: finished parsing EMBEDDED .ptx file stencil.1.sm_70.ptx
GPGPU-Sim PTX: loading globals with explicit initializers... 
GPGPU-Sim PTX: finished loading globals (0 bytes total).
GPGPU-Sim PTX: loading constants with explicit initializers...  done.
GPGPU-Sim PTX: Loading PTXInfo from stencil.1.sm_70.ptx
GPGPU-Sim PTX: Kernel '_Z17naive_kernel_nvm5ffPfS_iii' : regs=21, lmem=0, smem=0, cmem=388
GPGPU-Sim PTX: Kernel '_Z17naive_kernel_nvm6ffPfS_iii' : regs=21, lmem=0, smem=0, cmem=388
GPGPU-Sim PTX: Kernel '_Z17naive_kernel_nvmiffPfS_iii' : regs=21, lmem=0, smem=0, cmem=388
GPGPU-Sim PTX: Kernel '_Z17naive_kernel_nvm4ffPfS_iii' : regs=23, lmem=0, smem=0, cmem=388
GPGPU-Sim PTX: Kernel '_Z17naive_kernel_nvm3ffPfS_iii' : regs=23, lmem=0, smem=0, cmem=388
GPGPU-Sim PTX: Kernel '_Z17naive_kernel_nvmgffPfS_iii' : regs=23, lmem=0, smem=0, cmem=388
GPGPU-Sim PTX: Kernel '_Z17naive_kernel_nvm2ffPfS_iii' : regs=22, lmem=0, smem=0, cmem=388
GPGPU-Sim PTX: Kernel '_Z17naive_kernel_nvm1ffPfS_iii' : regs=22, lmem=0, smem=0, cmem=388
GPGPU-Sim PTX: Kernel '_Z17naive_kernel_nvmuffPfS_iii' : regs=20, lmem=0, smem=0, cmem=388
GPGPU-Sim PTX: Kernel '_Z17naive_kernel_nvmoffPfS_iii' : regs=20, lmem=0, smem=0, cmem=388
GPGPU-Sim PTX: Kernel '_Z17naive_kernel_nvmbffPfS_iii' : regs=20, lmem=0, smem=0, cmem=388
GPGPU-Sim PTX: Kernel '_Z12naive_kernelffPfS_iii' : regs=20, lmem=0, smem=0, cmem=388
GPGPU-Sim PTX: __cudaRegisterFunction _Z17naive_kernel_nvm6ffPfS_iii : hostFun 0x0x40332e, fat_cubin_handle = 1
GPGPU-Sim PTX: __cudaRegisterFunction _Z17naive_kernel_nvmiffPfS_iii : hostFun 0x0x403135, fat_cubin_handle = 1
GPGPU-Sim PTX: __cudaRegisterFunction _Z17naive_kernel_nvm4ffPfS_iii : hostFun 0x0x402f3c, fat_cubin_handle = 1
GPGPU-Sim PTX: __cudaRegisterFunction _Z17naive_kernel_nvm3ffPfS_iii : hostFun 0x0x402d43, fat_cubin_handle = 1
GPGPU-Sim PTX: __cudaRegisterFunction _Z17naive_kernel_nvmgffPfS_iii : hostFun 0x0x402b4a, fat_cubin_handle = 1
GPGPU-Sim PTX: __cudaRegisterFunction _Z17naive_kernel_nvm2ffPfS_iii : hostFun 0x0x402951, fat_cubin_handle = 1
GPGPU-Sim PTX: __cudaRegisterFunction _Z17naive_kernel_nvm1ffPfS_iii : hostFun 0x0x402758, fat_cubin_handle = 1
GPGPU-Sim PTX: __cudaRegisterFunction _Z17naive_kernel_nvmuffPfS_iii : hostFun 0x0x40255f, fat_cubin_handle = 1
GPGPU-Sim PTX: __cudaRegisterFunction _Z17naive_kernel_nvmoffPfS_iii : hostFun 0x0x402366, fat_cubin_handle = 1
GPGPU-Sim PTX: __cudaRegisterFunction _Z17naive_kernel_nvmbffPfS_iii : hostFun 0x0x40216d, fat_cubin_handle = 1
GPGPU-Sim PTX: __cudaRegisterFunction _Z12naive_kernelffPfS_iii : hostFun 0x0x401f74, fat_cubin_handle = 1
GPGPU-Sim PTX: __cudaRegisterVar: hostVar = 0x6091c0; deviceAddress = NVM_log; deviceName = NVM_log
GPGPU-Sim PTX: __cudaRegisterVar: Registering const memory space of 67108864 bytes
GPGPU-Sim PTX registering global NVM_log hostVar to name mapping
GPGPU-Sim PTX: __cudaRegisterVar: hostVar = 0x46091c0; deviceAddress = NVM_flag; deviceName = NVM_flag
GPGPU-Sim PTX: __cudaRegisterVar: Registering const memory space of 4194304 bytes
GPGPU-Sim PTX registering global NVM_flag hostVar to name mapping
CUDA accelerated 7 points stencil codes****
Original version by Li-Wen Chang <lchang20@illinois.edu> and I-Jui Sung<sung10@illinois.edu>
This version maintained by Chris Rodrigues  ***********
GPGPU-Sim: synchronize waiting for inactive GPU simulation
GPGPU-Sim API: Stream Manager State
GPGPU-Sim: detected inactive GPU simulation thread
event update
GPGPU-Sim: synchronize waiting for inactive GPU simulation
GPGPU-Sim API: Stream Manager State
GPGPU-Sim: detected inactive GPU simulation thread
GPGPU-Sim PTX: Setting up arguments for 4 bytes starting at 0x7ffed69cc43c..
GPGPU-Sim PTX: Setting up arguments for 4 bytes starting at 0x7ffed69cc438..
GPGPU-Sim PTX: Setting up arguments for 8 bytes starting at 0x7ffed69cc430..
GPGPU-Sim PTX: Setting up arguments for 8 bytes starting at 0x7ffed69cc428..
GPGPU-Sim PTX: Setting up arguments for 4 bytes starting at 0x7ffed69cc424..
GPGPU-Sim PTX: Setting up arguments for 4 bytes starting at 0x7ffed69cc420..
GPGPU-Sim PTX: Setting up arguments for 4 bytes starting at 0x7ffed69cc41c..

GPGPU-Sim PTX: cudaLaunch for 0x0x403135 (mode=performance simulation) on stream 0
GPGPU-Sim PTX: finding reconvergence points for '_Z17naive_kernel_nvmiffPfS_iii'...
GPGPU-Sim PTX: Finding dominators for '_Z17naive_kernel_nvmiffPfS_iii'...
GPGPU-Sim PTX: Finding immediate dominators for '_Z17naive_kernel_nvmiffPfS_iii'...
GPGPU-Sim PTX: Finding postdominators for '_Z17naive_kernel_nvmiffPfS_iii'...
GPGPU-Sim PTX: Finding immediate postdominators for '_Z17naive_kernel_nvmiffPfS_iii'...
GPGPU-Sim PTX: pre-decoding instructions for '_Z17naive_kernel_nvmiffPfS_iii'...
GPGPU-Sim PTX: reconvergence points for _Z17naive_kernel_nvmiffPfS_iii...
GPGPU-Sim PTX:  1 (potential) branch divergence @  PC=0x1688 (stencil.1.sm_70.ptx:1072) @%p2 bra BB9_2;
GPGPU-Sim PTX:    immediate post dominator      @  PC=0x16f0 (stencil.1.sm_70.ptx:1092) setp.lt.s32%p3, %r1, 1;
GPGPU-Sim PTX:  2 (potential) branch divergence @  PC=0x16f8 (stencil.1.sm_70.ptx:1093) @%p3 bra BB9_4;
GPGPU-Sim PTX:    immediate post dominator      @  PC=0x1858 (stencil.1.sm_70.ptx:1144) setp.eq.s32%p1, %r4, %r5;
GPGPU-Sim PTX:  3 (potential) branch divergence @  PC=0x1870 (stencil.1.sm_70.ptx:1149) @!%p1 bra BB9_6;
GPGPU-Sim PTX:    immediate post dominator      @  PC=0x18e0 (stencil.1.sm_70.ptx:1171) ret;
GPGPU-Sim PTX:  4 (potential) branch divergence @  PC=0x1878 (stencil.1.sm_70.ptx:1150) bra.uni BB9_5;
GPGPU-Sim PTX:    immediate post dominator      @  PC=0x1880 (stencil.1.sm_70.ptx:1153) mov.u32 %r36, %nctaid.x;
GPGPU-Sim PTX: ... end of reconvergence points for _Z17naive_kernel_nvmiffPfS_iii
GPGPU-Sim PTX: ... done pre-decoding instructions for '_Z17naive_kernel_nvmiffPfS_iii'.
GPGPU-Sim PTX: pushing kernel '_Z17naive_kernel_nvmiffPfS_iii' to stream 0, gridDim= (510,62,1) blockDim = (511,1,1) 
GPGPU-Sim uArch: Shader 0 bind to kernel 1 '_Z17naive_kernel_nvmiffPfS_iii'
GPGPU-Sim uArch: CTA/core = 4, limited by: threads
GPGPU-Sim: Reconfigure L1 cache to 128KB
GPGPU-Sim uArch: Shader 1 bind to kernel 1 '_Z17naive_kernel_nvmiffPfS_iii'
GPGPU-Sim uArch: Shader 2 bind to kernel 1 '_Z17naive_kernel_nvmiffPfS_iii'
GPGPU-Sim uArch: Shader 3 bind to kernel 1 '_Z17naive_kernel_nvmiffPfS_iii'
GPGPU-Sim uArch: Shader 4 bind to kernel 1 '_Z17naive_kernel_nvmiffPfS_iii'
GPGPU-Sim uArch: Shader 5 bind to kernel 1 '_Z17naive_kernel_nvmiffPfS_iii'
GPGPU-Sim uArch: Shader 6 bind to kernel 1 '_Z17naive_kernel_nvmiffPfS_iii'
GPGPU-Sim uArch: Shader 7 bind to kernel 1 '_Z17naive_kernel_nvmiffPfS_iii'
GPGPU-Sim uArch: Shader 8 bind to kernel 1 '_Z17naive_kernel_nvmiffPfS_iii'
GPGPU-Sim uArch: Shader 9 bind to kernel 1 '_Z17naive_kernel_nvmiffPfS_iii'
GPGPU-Sim uArch: Shader 10 bind to kernel 1 '_Z17naive_kernel_nvmiffPfS_iii'
GPGPU-Sim uArch: Shader 11 bind to kernel 1 '_Z17naive_kernel_nvmiffPfS_iii'
GPGPU-Sim uArch: Shader 12 bind to kernel 1 '_Z17naive_kernel_nvmiffPfS_iii'
GPGPU-Sim uArch: Shader 13 bind to kernel 1 '_Z17naive_kernel_nvmiffPfS_iii'
GPGPU-Sim uArch: Shader 14 bind to kernel 1 '_Z17naive_kernel_nvmiffPfS_iii'
GPGPU-Sim uArch: Shader 15 bind to kernel 1 '_Z17naive_kernel_nvmiffPfS_iii'
GPGPU-Sim uArch: Shader 16 bind to kernel 1 '_Z17naive_kernel_nvmiffPfS_iii'
GPGPU-Sim uArch: Shader 17 bind to kernel 1 '_Z17naive_kernel_nvmiffPfS_iii'
GPGPU-Sim uArch: Shader 18 bind to kernel 1 '_Z17naive_kernel_nvmiffPfS_iii'
GPGPU-Sim uArch: Shader 19 bind to kernel 1 '_Z17naive_kernel_nvmiffPfS_iii'
GPGPU-Sim uArch: Shader 20 bind to kernel 1 '_Z17naive_kernel_nvmiffPfS_iii'
GPGPU-Sim uArch: Shader 21 bind to kernel 1 '_Z17naive_kernel_nvmiffPfS_iii'
GPGPU-Sim uArch: Shader 22 bind to kernel 1 '_Z17naive_kernel_nvmiffPfS_iii'
GPGPU-Sim uArch: Shader 23 bind to kernel 1 '_Z17naive_kernel_nvmiffPfS_iii'
GPGPU-Sim uArch: Shader 24 bind to kernel 1 '_Z17naive_kernel_nvmiffPfS_iii'
GPGPU-Sim uArch: Shader 25 bind to kernel 1 '_Z17naive_kernel_nvmiffPfS_iii'
GPGPU-Sim uArch: Shader 26 bind to kernel 1 '_Z17naive_kernel_nvmiffPfS_iii'
GPGPU-Sim uArch: Shader 27 bind to kernel 1 '_Z17naive_kernel_nvmiffPfS_iii'
GPGPU-Sim uArch: Shader 28 bind to kernel 1 '_Z17naive_kernel_nvmiffPfS_iii'
GPGPU-Sim uArch: Shader 29 bind to kernel 1 '_Z17naive_kernel_nvmiffPfS_iii'
GPGPU-Sim uArch: Shader 30 bind to kernel 1 '_Z17naive_kernel_nvmiffPfS_iii'
GPGPU-Sim uArch: Shader 31 bind to kernel 1 '_Z17naive_kernel_nvmiffPfS_iii'
GPGPU-Sim uArch: Shader 32 bind to kernel 1 '_Z17naive_kernel_nvmiffPfS_iii'
GPGPU-Sim uArch: Shader 33 bind to kernel 1 '_Z17naive_kernel_nvmiffPfS_iii'
GPGPU-Sim uArch: Shader 34 bind to kernel 1 '_Z17naive_kernel_nvmiffPfS_iii'
GPGPU-Sim uArch: Shader 35 bind to kernel 1 '_Z17naive_kernel_nvmiffPfS_iii'
GPGPU-Sim uArch: Shader 36 bind to kernel 1 '_Z17naive_kernel_nvmiffPfS_iii'
GPGPU-Sim uArch: Shader 37 bind to kernel 1 '_Z17naive_kernel_nvmiffPfS_iii'
GPGPU-Sim uArch: Shader 38 bind to kernel 1 '_Z17naive_kernel_nvmiffPfS_iii'
GPGPU-Sim uArch: Shader 39 bind to kernel 1 '_Z17naive_kernel_nvmiffPfS_iii'
GPGPU-Sim uArch: Shader 40 bind to kernel 1 '_Z17naive_kernel_nvmiffPfS_iii'
GPGPU-Sim uArch: Shader 41 bind to kernel 1 '_Z17naive_kernel_nvmiffPfS_iii'
GPGPU-Sim uArch: Shader 42 bind to kernel 1 '_Z17naive_kernel_nvmiffPfS_iii'
GPGPU-Sim uArch: Shader 43 bind to kernel 1 '_Z17naive_kernel_nvmiffPfS_iii'
GPGPU-Sim uArch: Shader 44 bind to kernel 1 '_Z17naive_kernel_nvmiffPfS_iii'
GPGPU-Sim uArch: Shader 45 bind to kernel 1 '_Z17naive_kernel_nvmiffPfS_iii'
GPGPU-Sim uArch: Shader 46 bind to kernel 1 '_Z17naive_kernel_nvmiffPfS_iii'
GPGPU-Sim uArch: Shader 47 bind to kernel 1 '_Z17naive_kernel_nvmiffPfS_iii'
GPGPU-Sim uArch: Shader 48 bind to kernel 1 '_Z17naive_kernel_nvmiffPfS_iii'
GPGPU-Sim uArch: Shader 49 bind to kernel 1 '_Z17naive_kernel_nvmiffPfS_iii'
GPGPU-Sim uArch: Shader 50 bind to kernel 1 '_Z17naive_kernel_nvmiffPfS_iii'
GPGPU-Sim uArch: Shader 51 bind to kernel 1 '_Z17naive_kernel_nvmiffPfS_iii'
GPGPU-Sim uArch: Shader 52 bind to kernel 1 '_Z17naive_kernel_nvmiffPfS_iii'
GPGPU-Sim uArch: Shader 53 bind to kernel 1 '_Z17naive_kernel_nvmiffPfS_iii'
GPGPU-Sim uArch: Shader 54 bind to kernel 1 '_Z17naive_kernel_nvmiffPfS_iii'
GPGPU-Sim uArch: Shader 55 bind to kernel 1 '_Z17naive_kernel_nvmiffPfS_iii'
GPGPU-Sim uArch: Shader 56 bind to kernel 1 '_Z17naive_kernel_nvmiffPfS_iii'
GPGPU-Sim uArch: Shader 57 bind to kernel 1 '_Z17naive_kernel_nvmiffPfS_iii'
GPGPU-Sim uArch: Shader 58 bind to kernel 1 '_Z17naive_kernel_nvmiffPfS_iii'
GPGPU-Sim uArch: Shader 59 bind to kernel 1 '_Z17naive_kernel_nvmiffPfS_iii'
GPGPU-Sim uArch: Shader 60 bind to kernel 1 '_Z17naive_kernel_nvmiffPfS_iii'
GPGPU-Sim uArch: Shader 61 bind to kernel 1 '_Z17naive_kernel_nvmiffPfS_iii'
GPGPU-Sim uArch: Shader 62 bind to kernel 1 '_Z17naive_kernel_nvmiffPfS_iii'
GPGPU-Sim uArch: Shader 63 bind to kernel 1 '_Z17naive_kernel_nvmiffPfS_iii'
GPGPU-Sim uArch: Shader 64 bind to kernel 1 '_Z17naive_kernel_nvmiffPfS_iii'
GPGPU-Sim uArch: Shader 65 bind to kernel 1 '_Z17naive_kernel_nvmiffPfS_iii'
GPGPU-Sim uArch: Shader 66 bind to kernel 1 '_Z17naive_kernel_nvmiffPfS_iii'
GPGPU-Sim uArch: Shader 67 bind to kernel 1 '_Z17naive_kernel_nvmiffPfS_iii'
GPGPU-Sim uArch: Shader 68 bind to kernel 1 '_Z17naive_kernel_nvmiffPfS_iii'
GPGPU-Sim uArch: Shader 69 bind to kernel 1 '_Z17naive_kernel_nvmiffPfS_iii'
GPGPU-Sim uArch: Shader 70 bind to kernel 1 '_Z17naive_kernel_nvmiffPfS_iii'
GPGPU-Sim uArch: Shader 71 bind to kernel 1 '_Z17naive_kernel_nvmiffPfS_iii'
GPGPU-Sim uArch: Shader 72 bind to kernel 1 '_Z17naive_kernel_nvmiffPfS_iii'
GPGPU-Sim uArch: Shader 73 bind to kernel 1 '_Z17naive_kernel_nvmiffPfS_iii'
GPGPU-Sim uArch: Shader 74 bind to kernel 1 '_Z17naive_kernel_nvmiffPfS_iii'
GPGPU-Sim uArch: Shader 75 bind to kernel 1 '_Z17naive_kernel_nvmiffPfS_iii'
GPGPU-Sim uArch: Shader 76 bind to kernel 1 '_Z17naive_kernel_nvmiffPfS_iii'
GPGPU-Sim uArch: Shader 77 bind to kernel 1 '_Z17naive_kernel_nvmiffPfS_iii'
GPGPU-Sim uArch: Shader 78 bind to kernel 1 '_Z17naive_kernel_nvmiffPfS_iii'
GPGPU-Sim uArch: Shader 79 bind to kernel 1 '_Z17naive_kernel_nvmiffPfS_iii'
kernel_name = _Z17naive_kernel_nvmiffPfS_iii 
kernel_launch_uid = 1 
gpu_sim_cycle = 35867
gpu_sim_insn = 80176659
gpu_ipc =    2235.3879
gpu_tot_sim_cycle = 35867
gpu_tot_sim_insn = 80176659
gpu_tot_ipc =    2235.3879
gpu_tot_issued_cta = 2368
gpu_occupancy = 93.8305% 
gpu_tot_occupancy = 93.8305% 
max_total_param_size = 0
gpu_stall_dramfull = 40863
gpu_stall_icnt2sh    = 0
partiton_level_parallism =      28.1090
partiton_level_parallism_total  =      28.1090
partiton_level_parallism_util =      33.2668
partiton_level_parallism_util_total  =      33.2668
L2_BW  =    1010.4665 GB/Sec
L2_BW_total  =    1010.4665 GB/Sec
gpu_total_sim_rate=168792
############## bottleneck_stats #############
cycles: core 35867, icnt 35867, l2 35867, dram 26932
gpu_ipc	2235.388
gpu_tot_issued_cta = 2368, average cycles = 15
n_dram_writes	 0, n_dram_reads	 0
n_GLOBAL_ACC_R	 211039 
n_LOCAL_ACC_R	 0 
n_CONST_ACC_R	 0 
n_TEXTURE_ACC_R	 0 
n_GLOBAL_ACC_W	 0 
n_LOCAL_ACC_W	 0 
n_L1_WRBK_ACC	 0 
n_L2_WRBK_ACC	 16532 
n_L1_WR_ALLOC_R	 0 
n_L2_WR_ALLOC_R	 0 

n_sm	 80, n_schedulers	 4
scheduler util	0.227	80
L1D data util	1.464	80	1.576	19
L1D tag util	0.427	80	0.451	19
L2 data util	0.668	64	0.677	32
L2 tag util	0.440	64	0.450	9
n_l2_access	 1010450
icnt s2m util	0.000	0	0.000	9	flits per packet: -nan
icnt m2s util	0.000	0	0.000	9	flits per packet: -nan
sum=0
n_mem	 32
dram util	0.321	32	0.323	9

latency_l1_hit:	3200500, num_l1_reqs:	160025
L1 hit latency:	20
latency_l2_hit:	209774059, num_l2_reqs:	645108
L2 hit latency:	325
latency_dram:	244067895, num_dram_reqs:	355270
DRAM latency:	686

n_reg	65536, n_smem	98304, n_thread	2048, n_tb	32
reg file	0.750
smem size	0.000
thread slot	1.000
TB slot    	0.125
L1I tag util	0.479	80	0.506	19

n_mem_pipe	1, n_sp_pipe	4, n_sfu_pipe	4
mem pipe util	0.207	80	0.218	19
sp pipe util	0.050	80	0.052	19
sfu pipe util	0.000	0	0.000	19
ldst mem cycle	0.000	0	0.000	19

smem port	0.000	0

n_reg_bank	16
reg port	0.124	16	0.149	1
L1D tag util	0.427	80	0.451	19
L1D fill util	0.299	80	0.323	19
n_l1d_mshr	4096
L1D mshr util	0.034	80
n_l1d_missq	16
L1D missq util	0.022	80
L1D hit rate	0.131
L1D miss rate	0.869
L1D rsfail rate	0.000
L2 tag util	0.440	64	0.450	9
L2 fill util	0.092	64	0.092	18
n_l2_mshr	192
n_l2_missq	32
L2 mshr util	0.209	64	0.222	31
L2 missq util	0.003	64	0.004	7
L2 hit rate	0.639
L2 miss rate	0.353
L2 rsfail rate	0.008

dram activity	0.488	32	0.497	28

load trans eff	0.934
load trans sz	32.000
load_useful_bytes 32309696, load_transaction_bytes 34581504, icnt_m2s_bytes 0
n_gmem_load_insns 253405, n_gmem_load_accesses 1080672
n_smem_access_insn 0, n_smem_accesses 0

tmp_counter/12	0.453

run 0.023, fetch 0.002, sync 0.181, control 0.001, data 0.773, struct 0.022
############ end_bottleneck_stats #############

========= Core cache stats =========
L1I_cache:
	L1I_total_cache_accesses = 0
	L1I_total_cache_misses = 0
	L1I_total_cache_pending_hits = 0
	L1I_total_cache_reservation_fails = 0
L1D_cache:
	L1D_cache_core[0]: Access = 14663, Miss = 12875, Miss_rate = 0.878, Pending_hits = 0, Reservation_fails = 0
	L1D_cache_core[1]: Access = 14806, Miss = 12663, Miss_rate = 0.855, Pending_hits = 0, Reservation_fails = 0
	L1D_cache_core[2]: Access = 15096, Miss = 13258, Miss_rate = 0.878, Pending_hits = 0, Reservation_fails = 0
	L1D_cache_core[3]: Access = 15211, Miss = 13145, Miss_rate = 0.864, Pending_hits = 0, Reservation_fails = 0
	L1D_cache_core[4]: Access = 15646, Miss = 13754, Miss_rate = 0.879, Pending_hits = 0, Reservation_fails = 0
	L1D_cache_core[5]: Access = 15360, Miss = 13399, Miss_rate = 0.872, Pending_hits = 0, Reservation_fails = 0
	L1D_cache_core[6]: Access = 15474, Miss = 13413, Miss_rate = 0.867, Pending_hits = 0, Reservation_fails = 0
	L1D_cache_core[7]: Access = 14890, Miss = 12765, Miss_rate = 0.857, Pending_hits = 0, Reservation_fails = 0
	L1D_cache_core[8]: Access = 15156, Miss = 13328, Miss_rate = 0.879, Pending_hits = 0, Reservation_fails = 0
	L1D_cache_core[9]: Access = 15115, Miss = 13052, Miss_rate = 0.864, Pending_hits = 0, Reservation_fails = 0
	L1D_cache_core[10]: Access = 15672, Miss = 13751, Miss_rate = 0.877, Pending_hits = 0, Reservation_fails = 0
	L1D_cache_core[11]: Access = 15907, Miss = 13884, Miss_rate = 0.873, Pending_hits = 0, Reservation_fails = 0
	L1D_cache_core[12]: Access = 15653, Miss = 13708, Miss_rate = 0.876, Pending_hits = 0, Reservation_fails = 0
	L1D_cache_core[13]: Access = 15368, Miss = 13476, Miss_rate = 0.877, Pending_hits = 0, Reservation_fails = 0
	L1D_cache_core[14]: Access = 15476, Miss = 13551, Miss_rate = 0.876, Pending_hits = 0, Reservation_fails = 0
	L1D_cache_core[15]: Access = 15191, Miss = 13051, Miss_rate = 0.859, Pending_hits = 0, Reservation_fails = 0
	L1D_cache_core[16]: Access = 15089, Miss = 13139, Miss_rate = 0.871, Pending_hits = 0, Reservation_fails = 0
	L1D_cache_core[17]: Access = 15632, Miss = 13754, Miss_rate = 0.880, Pending_hits = 0, Reservation_fails = 0
	L1D_cache_core[18]: Access = 15348, Miss = 13242, Miss_rate = 0.863, Pending_hits = 0, Reservation_fails = 0
	L1D_cache_core[19]: Access = 16171, Miss = 14316, Miss_rate = 0.885, Pending_hits = 0, Reservation_fails = 0
	L1D_cache_core[20]: Access = 15561, Miss = 13562, Miss_rate = 0.872, Pending_hits = 0, Reservation_fails = 0
	L1D_cache_core[21]: Access = 15361, Miss = 13292, Miss_rate = 0.865, Pending_hits = 0, Reservation_fails = 0
	L1D_cache_core[22]: Access = 15848, Miss = 13638, Miss_rate = 0.861, Pending_hits = 0, Reservation_fails = 0
	L1D_cache_core[23]: Access = 15360, Miss = 13617, Miss_rate = 0.887, Pending_hits = 0, Reservation_fails = 0
	L1D_cache_core[24]: Access = 15085, Miss = 12853, Miss_rate = 0.852, Pending_hits = 0, Reservation_fails = 0
	L1D_cache_core[25]: Access = 15171, Miss = 13171, Miss_rate = 0.868, Pending_hits = 0, Reservation_fails = 0
	L1D_cache_core[26]: Access = 15169, Miss = 13310, Miss_rate = 0.877, Pending_hits = 0, Reservation_fails = 0
	L1D_cache_core[27]: Access = 15347, Miss = 13402, Miss_rate = 0.873, Pending_hits = 0, Reservation_fails = 0
	L1D_cache_core[28]: Access = 15067, Miss = 12732, Miss_rate = 0.845, Pending_hits = 0, Reservation_fails = 0
	L1D_cache_core[29]: Access = 15315, Miss = 13389, Miss_rate = 0.874, Pending_hits = 0, Reservation_fails = 0
	L1D_cache_core[30]: Access = 15569, Miss = 13541, Miss_rate = 0.870, Pending_hits = 0, Reservation_fails = 0
	L1D_cache_core[31]: Access = 15192, Miss = 13041, Miss_rate = 0.858, Pending_hits = 0, Reservation_fails = 0
	L1D_cache_core[32]: Access = 14370, Miss = 12675, Miss_rate = 0.882, Pending_hits = 0, Reservation_fails = 0
	L1D_cache_core[33]: Access = 15355, Miss = 13456, Miss_rate = 0.876, Pending_hits = 0, Reservation_fails = 0
	L1D_cache_core[34]: Access = 15685, Miss = 13719, Miss_rate = 0.875, Pending_hits = 0, Reservation_fails = 0
	L1D_cache_core[35]: Access = 15352, Miss = 13548, Miss_rate = 0.882, Pending_hits = 0, Reservation_fails = 0
	L1D_cache_core[36]: Access = 15660, Miss = 13844, Miss_rate = 0.884, Pending_hits = 0, Reservation_fails = 0
	L1D_cache_core[37]: Access = 15480, Miss = 13621, Miss_rate = 0.880, Pending_hits = 0, Reservation_fails = 0
	L1D_cache_core[38]: Access = 15328, Miss = 13282, Miss_rate = 0.867, Pending_hits = 0, Reservation_fails = 0
	L1D_cache_core[39]: Access = 15353, Miss = 13409, Miss_rate = 0.873, Pending_hits = 0, Reservation_fails = 0
	L1D_cache_core[40]: Access = 15129, Miss = 13149, Miss_rate = 0.869, Pending_hits = 0, Reservation_fails = 0
	L1D_cache_core[41]: Access = 14393, Miss = 12518, Miss_rate = 0.870, Pending_hits = 0, Reservation_fails = 0
	L1D_cache_core[42]: Access = 15683, Miss = 13646, Miss_rate = 0.870, Pending_hits = 0, Reservation_fails = 0
	L1D_cache_core[43]: Access = 15382, Miss = 13334, Miss_rate = 0.867, Pending_hits = 0, Reservation_fails = 0
	L1D_cache_core[44]: Access = 15682, Miss = 13615, Miss_rate = 0.868, Pending_hits = 0, Reservation_fails = 0
	L1D_cache_core[45]: Access = 15266, Miss = 13245, Miss_rate = 0.868, Pending_hits = 0, Reservation_fails = 0
	L1D_cache_core[46]: Access = 15073, Miss = 12883, Miss_rate = 0.855, Pending_hits = 0, Reservation_fails = 0
	L1D_cache_core[47]: Access = 15463, Miss = 13473, Miss_rate = 0.871, Pending_hits = 0, Reservation_fails = 0
	L1D_cache_core[48]: Access = 15570, Miss = 13899, Miss_rate = 0.893, Pending_hits = 0, Reservation_fails = 0
	L1D_cache_core[49]: Access = 15113, Miss = 13012, Miss_rate = 0.861, Pending_hits = 0, Reservation_fails = 0
	L1D_cache_core[50]: Access = 15482, Miss = 13556, Miss_rate = 0.876, Pending_hits = 0, Reservation_fails = 0
	L1D_cache_core[51]: Access = 15030, Miss = 13112, Miss_rate = 0.872, Pending_hits = 0, Reservation_fails = 0
	L1D_cache_core[52]: Access = 15339, Miss = 13291, Miss_rate = 0.866, Pending_hits = 0, Reservation_fails = 0
	L1D_cache_core[53]: Access = 15307, Miss = 13397, Miss_rate = 0.875, Pending_hits = 0, Reservation_fails = 0
	L1D_cache_core[54]: Access = 15339, Miss = 13423, Miss_rate = 0.875, Pending_hits = 0, Reservation_fails = 0
	L1D_cache_core[55]: Access = 14976, Miss = 12784, Miss_rate = 0.854, Pending_hits = 0, Reservation_fails = 0
	L1D_cache_core[56]: Access = 15125, Miss = 12961, Miss_rate = 0.857, Pending_hits = 0, Reservation_fails = 0
	L1D_cache_core[57]: Access = 15205, Miss = 13043, Miss_rate = 0.858, Pending_hits = 0, Reservation_fails = 0
	L1D_cache_core[58]: Access = 15444, Miss = 13569, Miss_rate = 0.879, Pending_hits = 0, Reservation_fails = 0
	L1D_cache_core[59]: Access = 15569, Miss = 13587, Miss_rate = 0.873, Pending_hits = 0, Reservation_fails = 0
	L1D_cache_core[60]: Access = 14861, Miss = 12657, Miss_rate = 0.852, Pending_hits = 0, Reservation_fails = 0
	L1D_cache_core[61]: Access = 15589, Miss = 13547, Miss_rate = 0.869, Pending_hits = 0, Reservation_fails = 0
	L1D_cache_core[62]: Access = 15334, Miss = 13188, Miss_rate = 0.860, Pending_hits = 0, Reservation_fails = 0
	L1D_cache_core[63]: Access = 15125, Miss = 13065, Miss_rate = 0.864, Pending_hits = 0, Reservation_fails = 0
	L1D_cache_core[64]: Access = 15032, Miss = 12818, Miss_rate = 0.853, Pending_hits = 0, Reservation_fails = 0
	L1D_cache_core[65]: Access = 14780, Miss = 12882, Miss_rate = 0.872, Pending_hits = 0, Reservation_fails = 0
	L1D_cache_core[66]: Access = 15487, Miss = 13540, Miss_rate = 0.874, Pending_hits = 0, Reservation_fails = 0
	L1D_cache_core[67]: Access = 15327, Miss = 13448, Miss_rate = 0.877, Pending_hits = 0, Reservation_fails = 0
	L1D_cache_core[68]: Access = 15117, Miss = 13196, Miss_rate = 0.873, Pending_hits = 0, Reservation_fails = 0
	L1D_cache_core[69]: Access = 15282, Miss = 13351, Miss_rate = 0.874, Pending_hits = 0, Reservation_fails = 0
	L1D_cache_core[70]: Access = 15679, Miss = 13692, Miss_rate = 0.873, Pending_hits = 0, Reservation_fails = 0
	L1D_cache_core[71]: Access = 15144, Miss = 12796, Miss_rate = 0.845, Pending_hits = 0, Reservation_fails = 0
	L1D_cache_core[72]: Access = 15398, Miss = 13386, Miss_rate = 0.869, Pending_hits = 0, Reservation_fails = 0
	L1D_cache_core[73]: Access = 15161, Miss = 13123, Miss_rate = 0.866, Pending_hits = 0, Reservation_fails = 0
	L1D_cache_core[74]: Access = 15481, Miss = 13478, Miss_rate = 0.871, Pending_hits = 0, Reservation_fails = 0
	L1D_cache_core[75]: Access = 15185, Miss = 12836, Miss_rate = 0.845, Pending_hits = 0, Reservation_fails = 0
	L1D_cache_core[76]: Access = 14872, Miss = 12925, Miss_rate = 0.869, Pending_hits = 0, Reservation_fails = 0
	L1D_cache_core[77]: Access = 15361, Miss = 13482, Miss_rate = 0.878, Pending_hits = 0, Reservation_fails = 0
	L1D_cache_core[78]: Access = 15276, Miss = 13274, Miss_rate = 0.869, Pending_hits = 0, Reservation_fails = 0
	L1D_cache_core[79]: Access = 15194, Miss = 12975, Miss_rate = 0.854, Pending_hits = 0, Reservation_fails = 0
	L1D_total_cache_accesses = 1223807
	L1D_total_cache_misses = 1063782
	L1D_total_cache_miss_rate = 0.8692
	L1D_total_cache_pending_hits = 0
	L1D_total_cache_reservation_fails = 0
	L1D_cache_data_port_util = 0.065
	L1D_cache_fill_port_util = 0.348
L1C_cache:
	L1C_total_cache_accesses = 0
	L1C_total_cache_misses = 0
	L1C_total_cache_pending_hits = 0
	L1C_total_cache_reservation_fails = 0
L1T_cache:
	L1T_total_cache_accesses = 0
	L1T_total_cache_misses = 0
	L1T_total_cache_pending_hits = 0
	L1T_total_cache_reservation_fails = 0

Total_core_cache_stats:
	Total_core_cache_stats_breakdown[GLOBAL_ACC_R][HIT] = 160025
	Total_core_cache_stats_breakdown[GLOBAL_ACC_R][HIT_RESERVED] = 0
	Total_core_cache_stats_breakdown[GLOBAL_ACC_R][MISS] = 792941
	Total_core_cache_stats_breakdown[GLOBAL_ACC_R][RESERVATION_FAIL] = 0
	Total_core_cache_stats_breakdown[GLOBAL_ACC_R][SECTOR_MISS] = 126652
	Total_core_cache_stats_breakdown[LOCAL_ACC_R][HIT] = 0
	Total_core_cache_stats_breakdown[LOCAL_ACC_R][HIT_RESERVED] = 0
	Total_core_cache_stats_breakdown[LOCAL_ACC_R][MISS] = 0
	Total_core_cache_stats_breakdown[LOCAL_ACC_R][RESERVATION_FAIL] = 0
	Total_core_cache_stats_breakdown[LOCAL_ACC_R][SECTOR_MISS] = 0
	Total_core_cache_stats_breakdown[CONST_ACC_R][HIT] = 0
	Total_core_cache_stats_breakdown[CONST_ACC_R][HIT_RESERVED] = 0
	Total_core_cache_stats_breakdown[CONST_ACC_R][MISS] = 0
	Total_core_cache_stats_breakdown[CONST_ACC_R][RESERVATION_FAIL] = 0
	Total_core_cache_stats_breakdown[CONST_ACC_R][SECTOR_MISS] = 0
	Total_core_cache_stats_breakdown[TEXTURE_ACC_R][HIT] = 0
	Total_core_cache_stats_breakdown[TEXTURE_ACC_R][HIT_RESERVED] = 0
	Total_core_cache_stats_breakdown[TEXTURE_ACC_R][MISS] = 0
	Total_core_cache_stats_breakdown[TEXTURE_ACC_R][RESERVATION_FAIL] = 0
	Total_core_cache_stats_breakdown[TEXTURE_ACC_R][SECTOR_MISS] = 0
	Total_core_cache_stats_breakdown[GLOBAL_ACC_W][HIT] = 0
	Total_core_cache_stats_breakdown[GLOBAL_ACC_W][HIT_RESERVED] = 0
	Total_core_cache_stats_breakdown[GLOBAL_ACC_W][MISS] = 144189
	Total_core_cache_stats_breakdown[GLOBAL_ACC_W][RESERVATION_FAIL] = 0
	Total_core_cache_stats_breakdown[GLOBAL_ACC_W][SECTOR_MISS] = 0
	Total_core_cache_stats_breakdown[LOCAL_ACC_W][HIT] = 0
	Total_core_cache_stats_breakdown[LOCAL_ACC_W][HIT_RESERVED] = 0
	Total_core_cache_stats_breakdown[LOCAL_ACC_W][MISS] = 0
	Total_core_cache_stats_breakdown[LOCAL_ACC_W][RESERVATION_FAIL] = 0
	Total_core_cache_stats_breakdown[LOCAL_ACC_W][SECTOR_MISS] = 0
	Total_core_cache_stats_breakdown[L1_WRBK_ACC][HIT] = 0
	Total_core_cache_stats_breakdown[L1_WRBK_ACC][HIT_RESERVED] = 0
	Total_core_cache_stats_breakdown[L1_WRBK_ACC][MISS] = 0
	Total_core_cache_stats_breakdown[L1_WRBK_ACC][RESERVATION_FAIL] = 0
	Total_core_cache_stats_breakdown[L1_WRBK_ACC][SECTOR_MISS] = 0
	Total_core_cache_stats_breakdown[L2_WRBK_ACC][HIT] = 0
	Total_core_cache_stats_breakdown[L2_WRBK_ACC][HIT_RESERVED] = 0
	Total_core_cache_stats_breakdown[L2_WRBK_ACC][MISS] = 0
	Total_core_cache_stats_breakdown[L2_WRBK_ACC][RESERVATION_FAIL] = 0
	Total_core_cache_stats_breakdown[L2_WRBK_ACC][SECTOR_MISS] = 0
	Total_core_cache_stats_breakdown[INST_ACC_R][HIT] = 0
	Total_core_cache_stats_breakdown[INST_ACC_R][HIT_RESERVED] = 0
	Total_core_cache_stats_breakdown[INST_ACC_R][MISS] = 0
	Total_core_cache_stats_breakdown[INST_ACC_R][RESERVATION_FAIL] = 0
	Total_core_cache_stats_breakdown[INST_ACC_R][SECTOR_MISS] = 0
	Total_core_cache_stats_breakdown[L1_WR_ALLOC_R][HIT] = 0
	Total_core_cache_stats_breakdown[L1_WR_ALLOC_R][HIT_RESERVED] = 0
	Total_core_cache_stats_breakdown[L1_WR_ALLOC_R][MISS] = 0
	Total_core_cache_stats_breakdown[L1_WR_ALLOC_R][RESERVATION_FAIL] = 0
	Total_core_cache_stats_breakdown[L1_WR_ALLOC_R][SECTOR_MISS] = 0
	Total_core_cache_stats_breakdown[L2_WR_ALLOC_R][HIT] = 0
	Total_core_cache_stats_breakdown[L2_WR_ALLOC_R][HIT_RESERVED] = 0
	Total_core_cache_stats_breakdown[L2_WR_ALLOC_R][MISS] = 0
	Total_core_cache_stats_breakdown[L2_WR_ALLOC_R][RESERVATION_FAIL] = 0
	Total_core_cache_stats_breakdown[L2_WR_ALLOC_R][SECTOR_MISS] = 0
	Total_core_cache_stats_breakdown[GLOBAL_ACC_R][TOTAL_ACCESS] = 1079618
	Total_core_cache_stats_breakdown[GLOBAL_ACC_W][TOTAL_ACCESS] = 144189

Total_core_cache_fail_stats:
Shader 0 warp_id issue ditsribution:
warp_id:
0, 1, 2, 3, 4, 5, 6, 7, 8, 9, 10, 11, 12, 13, 14, 15, 16, 17, 18, 19, 20, 21, 22, 23, 24, 25, 26, 27, 28, 29, 30, 31, 32, 33, 34, 35, 36, 37, 38, 39, 40, 41, 42, 43, 44, 45, 46, 47, 48, 49, 50, 51, 52, 53, 54, 55, 56, 57, 58, 59, 60, 61, 62, 63, 
distro:
637, 475, 477, 475, 478, 480, 477, 477, 477, 480, 477, 477, 475, 475, 477, 480, 664, 490, 490, 490, 490, 490, 490, 490, 490, 490, 490, 490, 490, 490, 490, 490, 639, 477, 477, 477, 477, 480, 477, 477, 477, 477, 477, 477, 477, 477, 477, 477, 630, 475, 472, 469, 469, 475, 469, 469, 469, 469, 469, 469, 469, 469, 469, 469, 
gpgpu_n_tot_thrd_icount = 83331584
gpgpu_n_tot_w_icount = 2604112
gpgpu_n_stall_shd_mem = 931853
gpgpu_n_mem_read_local = 0
gpgpu_n_mem_write_local = 0
gpgpu_n_mem_read_global = 866185
gpgpu_n_mem_write_global = 144184
gpgpu_n_mem_texture = 0
gpgpu_n_mem_const = 0
gpgpu_n_load_insn  = 8073944
gpgpu_n_store_insn = 1120001
gpgpu_n_shmem_insn = 0
gpgpu_n_sstarr_insn = 0
gpgpu_n_tex_insn = 0
gpgpu_n_const_mem_insn = 0
gpgpu_n_param_mem_insn = 7211209
gpgpu_n_shmem_bkconflict = 0
gpgpu_n_cache_bkconflict = 0
gpgpu_n_intrawarp_mshr_merge = 0
gpgpu_n_cmem_portconflict = 0
gpgpu_stall_shd_mem[c_mem][resource_stall] = 0
gpgpu_stall_shd_mem[s_mem][bk_conf] = 0
gpgpu_stall_shd_mem[gl_mem][resource_stall] = 931853
gpgpu_stall_shd_mem[gl_mem][coal_stall] = 0
gpgpu_stall_shd_mem[gl_mem][data_port_stall] = 0
gpu_reg_bank_conflict_stalls = 0
Warp Occupancy Distribution:
Stall:1457763	W0_Idle:31901	W0_Scoreboard:5779950	W1:55068	W2:0	W3:0	W4:0	W5:0	W6:0	W7:0	W8:0	W9:0	W10:0	W11:0	W12:0	W13:0	W14:0	W15:0	W16:0	W17:0	W18:0	W19:0	W20:0	W21:0	W22:0	W23:0	W24:0	W25:0	W26:0	W27:0	W28:0	W29:0	W30:0	W31:255947	W32:2296491
single_issue_nums: WS0:691872	WS1:638504	WS2:638555	WS3:638575	
dual_issue_nums: WS0:0	WS1:0	WS2:0	WS3:0	
traffic_breakdown_coretomem[GLOBAL_ACC_R] = 6929480 {8:866185,}
traffic_breakdown_coretomem[GLOBAL_ACC_W] = 5767360 {40:144184,}
traffic_breakdown_memtocore[GLOBAL_ACC_R] = 34333800 {40:858345,}
traffic_breakdown_memtocore[GLOBAL_ACC_W] = 1136760 {8:142095,}
maxmflatency = 3752 
max_icnt2mem_latency = 2572 
maxmrqlatency = 690 
max_icnt2sh_latency = 391 
averagemflatency = 454 
avg_icnt2mem_latency = 171 
avg_mrq_latency = 45 
avg_icnt2sh_latency = 22 
mrq_lat_table:44236 	26638 	18264 	17231 	26388 	36712 	34720 	19699 	3490 	131 	0 	0 	0 	0 	0 	0 	0 	0 	0 	0 	0 	0 	0 	0 	0 	0 	0 	0 	0 	0 	0 	0 	
dq_lat_table:0 	0 	0 	0 	0 	0 	0 	0 	0 	0 	0 	0 	0 	0 	0 	0 	0 	0 	0 	0 	0 	0 	0 	0 	0 	0 	0 	0 	0 	0 	0 	0 	
mf_lat_table:0 	0 	0 	0 	0 	0 	0 	275594 	507988 	154772 	52509 	9548 	0 	0 	0 	0 	0 	0 	0 	0 	0 	0 	0 	0 	0 	0 	0 	0 	0 	0 	0 	0 	
icnt2mem_lat_table:0 	0 	0 	0 	135555 	191095 	251592 	274050 	111050 	20375 	23962 	506 	0 	0 	0 	0 	0 	0 	0 	0 	0 	0 	0 	0 	
icnt2sh_lat_table:0 	498214 	148344 	95840 	75741 	70647 	65157 	41035 	5433 	0 	0 	0 	0 	0 	0 	0 	0 	0 	0 	0 	0 	0 	0 	0 	
mf_lat_pw_table:0 	0 	0 	0 	0 	0 	0 	1 	50 	4 	5 	0 	0 	0 	0 	0 	0 	0 	0 	0 	0 	0 	0 	0 	0 	0 	0 	0 	0 	0 	0 	0 	
maximum concurrent accesses to same row:
dram[0]:        56        64        64        64        64        64        64        64        64        64        64        64        64        64        64        64 
dram[1]:        64        64        64        64        64        64        64        64        64        64        64        64        64        64        64        64 
dram[2]:        64        64        64        64        64        64        64        64        64        64        64        64        64        64        64        64 
dram[3]:        64        64        64        64        64        64        64        64        64        64        64        64        64        64        64        64 
dram[4]:        64        64        64        64        64        64        64        64        64        64        64        64        64        64        64        64 
dram[5]:        64        64        64        64        64        64        64        64        64        64        64        64        64        64        64        64 
dram[6]:        64        64        64        64        64        64        64        64        64        64        64        64        64        64        64        64 
dram[7]:        64        64        64        64        64        64        64        64        64        64        64        64        64        64        64        64 
dram[8]:        64        64        64        64        64        64        64        64        64        64        64        64        64        64        64        64 
dram[9]:        64        64        64        64        64        64        64        64        64        64        64        64        64        64        64        64 
dram[10]:        64        64        64        64        64        64        64        64        64        64        64        64        64        64        64        64 
dram[11]:        64        64        64        64        64        64        64        64        64        64        64        64        64        64        64        64 
dram[12]:        64        64        64        64        64        64        64        64        64        64        64        64        64        64        64        64 
dram[13]:        64        64        64        64        64        64        64        64        64        64        64        64        64        64        64        64 
dram[14]:        64        64        64        64        64        64        64        64        64        64        64        64        64        64        64        64 
dram[15]:        64        64        64        64        64        64        64        64        64        64        64        64        64        64        64        64 
dram[16]:        64        64        64        64        64        64        64        64        64        64        64        64        64        64        64        64 
dram[17]:        64        64        64        64        64        64        64        64        64        64        64        64        64        64        64        64 
dram[18]:        64        64        64        64        64        64        64        64        64        64        64        64        64        64        64        64 
dram[19]:        64        64        64        64        64        64        64        64        64        64        64        64        64        64        64        64 
dram[20]:        64        64        64        64        64        64        64        64        64        64        64        64        64        64        64        64 
dram[21]:        64        64        64        64        64        64        64        64        64        64        64        64        64        64        64        64 
dram[22]:        64        64        64        64        64        64        64        64        64        64        64        64        64        64        64        64 
dram[23]:        64        64        64        64        64        64        64        64        64        64        64        64        64        64        64        64 
dram[24]:        64        64        64        64        64        64        64        64        64        64        64        64        64        64        64        56 
dram[25]:        64        64        64        64        64        64        64        64        64        64        64        64        64        64        64        64 
dram[26]:        64        64        64        64        64        64        64        64        64        64        64        64        64        64        64        64 
dram[27]:        64        64        64        64        64        64        64        64        64        64        64        64        64        64        64        64 
dram[28]:        64        64        64        64        64        64        64        64        64        64        64        64        64        64        64        64 
dram[29]:        64        64        64        64        64        64        64        64        64        64        64        64        64        64        64        64 
dram[30]:        64        64        64        64        64        64        64        64        64        64        64        64        64        64        64        64 
dram[31]:        64        64        64        64        64        64        64        64        64        64        64        64        64        64        64        64 
maximum service time to same row:
dram[0]:      6278      7892      7756      7888      7964      6944      7678      7305      7982      7513      8004     11102     11685     11692     11953     12078 
dram[1]:      6663      7752      7736      7861      7967      7003      7730      7534      7968      7709      8216     11098     11697     11641     11918     12106 
dram[2]:      6688      7638      7691      7871      7898      7056      7738      7438      8219      7643      8252     11122     11713     11680     11953     12122 
dram[3]:      6648      7672      7683      7900      7998      7112      7801      7433      8196      7642      8593     11130     11713     11639     11985     12105 
dram[4]:      6685      7693      7674      7808      7822      7220      7990      7460      8628      7707      8822     11191     11728     11653     11926     12125 
dram[5]:      6740      7637      7687      7889      7824      7192      7978      7394      8526      7675      8648     11174     11776     11705     11984     12195 
dram[6]:      6722      7688      7635      7859      7827      7289      8179      7485      8718      7746      9128     11175     11807     11748     12073     12223 
dram[7]:      6872      7743      7648      7845      7868      7252      7988      7420      8574      7798      8926     11258     11896     11724     12062     12239 
dram[8]:      7639      7851      7711      7918      7797      6940      7247      7369      7698      7620      8974     11063     11688     11721     11980     12096 
dram[9]:      7647      7702      7833      7740      7817      6994      7466      7488      7849      7630      9029     11086     11696     11744     11982     12072 
dram[10]:      7606      7788      7739      7795      7794      7070      7478      7517      7737      7783      9064     11102     11705     11792     12021     12129 
dram[11]:      7627      7897      7794      7738      7801      7123      7458      7542      7878      7771      9232     11154     11724     11733     11969     12175 
dram[12]:      7562      7841      7830      7653      7824      7208      7490      7618      7879      7932      9645     11135     11749     11751     12025     12177 
dram[13]:      7546      7686      7789      7672      7893      7208      7482      7609      7882      7927      9335     11202     11765     11725     11969     12122 
dram[14]:      7667      7788      7808      7635      7778      7312      7549      7706      8027      7987      9814     11174     11840     11856     12045     12279 
dram[15]:      7630      7889      7823      7663      7760      7333      7478      7790      7998      8146      9629     11259     11803     11904     12049     12337 
dram[16]:      7439      7867      7712      7659      7569      6940      7244      7415      7654      7719     11083     11074     11675     11756     12110     12181 
dram[17]:      7501      7734      7566      7743      7563      6999      7468      7489      7839      7852     11074     11086     11645     11697     12090     12186 
dram[18]:      7558      7870      7482      7751      7625      7076      7498      7525      7858      7901     11094     11101     11700     11771     12169     12174 
dram[19]:      7552      7860      7454      7768      7528      7132      7484      7542      7964      7966     11110     11150     11693     11719     12129     12191 
dram[20]:      7406      7880      7490      7733      7547      7208      7468      7557      7982      7983     11150     11171     11645     11731     12169     12222 
dram[21]:      7490      7849      7485      7739      7607      7212      7520      7558      7998      7955     11190     11110     11653     11741     12153     12206 
dram[22]:      7285      7824      7507      7857      7580      7277      7630      7654      8052      7987     11302     11210     11828     11807     12249     12317 
dram[23]:      7459      7878      7434      7739      7624      7331      7584      7725      8092      8170     11202     11223     11708     11819     12189     12302 
dram[24]:      7701      7631      8020      7762      6956      6942      7259      7309      7561      7526     11074     11119     11669     11775     11922     12197 
dram[25]:      7680      7542      7894      7780      7028      7000      7472      7482      7763      7765     11037     11095     11639     11760     11916     12197 
dram[26]:      7651      7566      7937      7823      7104      7071      7497      7520      7754      7785     11083     11146     11685     11800     11993     12258 
dram[27]:      7612      7611      7873      7753      7137      7128      7492      7453      7857      7825     11106     11130     11663     11796     11989     12231 
dram[28]:      7552      7548      7907      7762      7168      7204      7546      7452      7863      7902     11110     11202     11709     11807     11958     12263 
dram[29]:      7538      7478      8000      7724      7173      7207      7557      7526      7954      7858     11146     11178     11699     11804     11968     12207 
dram[30]:      7632      7511      7933      7751      7228      7236      7418      7566      7895      7793     11154     11243     11749     11898     12012     12313 
dram[31]:      7672      7536      7874      7868      7287      7331      7694      7734      8120      8019     11191     11226     11733     11863     12054     12313 
average row accesses per activate:
dram[0]: 20.909090 26.722221 15.031250 15.125000 17.777779 22.857143 18.833334 21.476191 21.894737 19.809525 13.000000 16.639999 18.086956 21.894737 27.333334 20.650000 
dram[1]: 24.315790 43.636364 22.136364 24.350000 22.857143 36.923077 25.388889 35.076923 37.818180 37.818180 17.333334 29.714285 23.111111 32.000000 31.692308 31.846153 
dram[2]: 33.000000 48.099998 30.187500 28.470589 20.000000 32.000000 19.083334 34.692307 41.599998 37.818180 18.909090 27.733334 23.111111 32.000000 31.615385 27.666666 
dram[3]: 25.722221 40.083332 27.000000 22.136364 22.857143 36.923077 20.727272 37.666668 29.714285 37.818180 19.809525 29.714285 23.111111 27.733334 32.000000 29.428572 
dram[4]: 27.235294 43.636364 24.299999 20.333334 25.263159 40.000000 22.799999 37.333332 46.222221 37.818180 19.809525 29.714285 24.470589 26.000000 27.333334 27.466667 
dram[5]: 22.095238 40.166668 22.227272 22.272728 24.000000 34.285713 25.333334 35.230770 37.818180 37.818180 18.086956 32.000000 20.799999 32.000000 31.615385 29.214285 
dram[6]: 25.722221 40.083332 20.125000 22.090910 26.666666 36.923077 26.823530 34.461540 34.666668 37.818180 20.799999 24.470589 26.000000 27.733334 31.461538 25.562500 
dram[7]: 24.421053 40.083332 22.000000 27.166666 25.263159 40.000000 22.799999 29.866667 37.818180 37.818180 18.909090 29.714285 27.733334 27.733334 27.066668 29.214285 
dram[8]: 21.954546 30.062500 17.178572 11.804878 20.869566 20.000000 18.080000 18.708334 34.666668 19.809525 18.086956 16.639999 20.799999 17.333334 19.571428 29.357143 
dram[9]: 34.642857 40.083332 20.166666 24.299999 20.869566 32.000000 27.352942 45.599998 34.666668 32.000000 24.470589 20.799999 34.666668 23.111111 27.666666 37.545456 
dram[10]: 40.166668 48.299999 22.045454 23.000000 28.235294 32.000000 27.176470 37.166668 34.666668 41.599998 18.909090 17.333334 32.000000 23.111111 29.642857 34.250000 
dram[11]: 40.166668 40.166668 19.440001 24.350000 22.857143 36.923077 21.952381 37.750000 37.818180 34.666668 20.799999 26.000000 34.666668 20.799999 29.714285 37.363636 
dram[12]: 32.200001 40.250000 17.392857 18.074074 25.263159 32.000000 22.850000 40.636364 34.666668 41.599998 23.111111 20.799999 34.666668 21.894737 27.600000 40.900002 
dram[13]: 40.166668 43.636364 16.200001 17.464285 20.869566 36.923077 26.823530 40.454544 32.000000 41.599998 27.733334 26.000000 34.666668 18.909090 23.000000 34.250000 
dram[14]: 40.083332 43.636364 17.214285 24.100000 22.857143 32.000000 25.333334 44.000000 37.818180 34.666668 21.894737 23.111111 34.666668 23.111111 27.733334 34.333332 
dram[15]: 40.083332 40.083332 18.538462 25.736841 26.666666 36.923077 24.000000 44.099998 32.000000 46.222221 23.111111 26.000000 29.714285 23.111111 27.600000 40.900002 
dram[16]: 30.000000 28.235294 12.358974 17.888889 17.142857 28.235294 19.869566 29.866667 27.733334 29.714285 18.909090 18.086956 16.000000 20.799999 24.294117 37.272728 
dram[17]: 40.083332 40.166668 20.291666 26.944445 28.235294 36.923077 26.941177 34.692307 34.666668 37.818180 27.733334 23.111111 23.111111 32.000000 32.000000 45.666668 
dram[18]: 43.818180 53.333332 19.320000 23.000000 30.000000 34.285713 27.117647 37.416668 32.000000 46.222221 27.733334 23.111111 20.799999 37.818180 29.500000 45.666668 
dram[19]: 40.083332 43.636364 17.321428 18.576923 28.235294 40.000000 27.058823 44.799999 32.000000 46.222221 29.714285 23.111111 26.000000 32.000000 25.875000 45.777779 
dram[20]: 43.636364 43.636364 18.576923 20.208334 28.235294 40.000000 26.882353 30.266666 32.000000 41.599998 27.733334 24.470589 18.086956 32.000000 26.000000 45.888889 
dram[21]: 43.636364 40.250000 16.166666 17.357143 28.235294 36.923077 26.823530 35.000000 34.666668 41.599998 29.714285 23.111111 21.894737 29.714285 27.733334 41.299999 
dram[22]: 40.083332 40.083332 16.100000 18.576923 28.235294 36.923077 28.500000 37.416668 29.714285 41.599998 34.666668 21.894737 18.909090 29.714285 21.736841 45.333332 
dram[23]: 43.636364 40.083332 18.692308 21.954546 28.235294 43.636364 28.500000 37.500000 29.714285 46.222221 34.666668 24.470589 20.799999 37.818180 27.600000 45.555557 
dram[24]: 26.722221 26.777779 14.666667 15.062500 20.869566 21.818182 16.592592 22.200001 19.809525 21.894737 19.809525 18.909090 20.799999 20.799999 14.714286 18.571428 
dram[25]: 40.083332 40.166668 17.068966 24.100000 25.263159 32.000000 30.466667 44.900002 32.000000 34.666668 26.000000 26.000000 29.714285 34.666668 29.714285 28.071428 
dram[26]: 43.818180 48.099998 22.363636 24.100000 25.263159 34.285713 25.611111 37.500000 29.714285 37.818180 27.733334 21.894737 26.000000 32.000000 24.294117 30.307692 
dram[27]: 40.166668 40.166668 17.428572 22.000000 25.263159 34.285713 32.642857 40.818180 34.666668 34.666668 26.000000 23.111111 27.733334 34.666668 25.750000 32.750000 
dram[28]: 40.250000 40.083332 15.406250 19.240000 22.857143 34.285713 30.400000 32.357143 32.000000 41.599998 26.000000 21.894737 26.000000 29.714285 25.687500 30.076923 
dram[29]: 40.166668 43.636364 17.464285 19.320000 24.000000 34.285713 35.230770 34.538460 37.818180 32.000000 26.000000 21.894737 29.714285 32.000000 27.533333 27.785715 
dram[30]: 40.166668 43.636364 18.730770 21.909090 25.263159 32.000000 26.647058 37.333332 34.666668 32.000000 26.000000 24.470589 27.733334 34.666668 27.533333 29.923077 
dram[31]: 40.083332 34.357143 17.321428 24.100000 24.000000 36.923077 26.705883 44.799999 37.818180 32.000000 27.733334 24.470589 27.733334 32.000000 27.533333 32.333332 
average row locality = 227509/8431 = 26.984818
number of total memory accesses made:
dram[0]:         0         0         0         0         0         0         0         0         0         0         0         0         0         0         0         0 
dram[1]:         0         0         0         0         0         0         0         0         0         0         0         0         0         0         0         0 
dram[2]:         0         0         0         0         0         0         0         0         0         0         0         0         0         0         0         0 
dram[3]:         0         0         0         0         0         0         0         0         0         0         0         0         0         0         0         0 
dram[4]:         0         0         0         0         0         0         0         0         0         0         0         0         0         0         0         0 
dram[5]:         0         0         0         0         0         0         0         0         0         0         0         0         0         0         0         0 
dram[6]:         0         0         0         0         0         0         0         0         0         0         0         0         0         0         0         0 
dram[7]:         0         0         0         0         0         0         0         0         0         0         0         0         0         0         0         0 
dram[8]:         0         0         0         0         0         0         0         0         0         0         0         0         0         0         0         0 
dram[9]:         0         0         0         0         0         0         0         0         0         0         0         0         0         0         0         0 
dram[10]:         0         0         0         0         0         0         0         0         0         0         0         0         0         0         0         0 
dram[11]:         0         0         0         0         0         0         0         0         0         0         0         0         0         0         0         0 
dram[12]:         0         0         0         0         0         0         0         0         0         0         0         0         0         0         0         0 
dram[13]:         0         0         0         0         0         0         0         0         0         0         0         0         0         0         0         0 
dram[14]:         0         0         0         0         0         0         0         0         0         0         0         0         0         0         0         0 
dram[15]:         0         0         0         0         0         0         0         0         0         0         0         0         0         0         0         0 
dram[16]:         0         0         0         0         0         0         0         0         0         0         0         0         0         0         0         0 
dram[17]:         0         0         0         0         0         0         0         0         0         0         0         0         0         0         0         0 
dram[18]:         0         0         0         0         0         0         0         0         0         0         0         0         0         0         0         0 
dram[19]:         0         0         0         0         0         0         0         0         0         0         0         0         0         0         0         0 
dram[20]:         0         0         0         0         0         0         0         0         0         0         0         0         0         0         0         0 
dram[21]:         0         0         0         0         0         0         0         0         0         0         0         0         0         0         0         0 
dram[22]:         0         0         0         0         0         0         0         0         0         0         0         0         0         0         0         0 
dram[23]:         0         0         0         0         0         0         0         0         0         0         0         0         0         0         0         0 
dram[24]:         0         0         0         0         0         0         0         0         0         0         0         0         0         0         0         0 
dram[25]:         0         0         0         0         0         0         0         0         0         0         0         0         0         0         0         0 
dram[26]:         0         0         0         0         0         0         0         0         0         0         0         0         0         0         0         0 
dram[27]:         0         0         0         0         0         0         0         0         0         0         0         0         0         0         0         0 
dram[28]:         0         0         0         0         0         0         0         0         0         0         0         0         0         0         0         0 
dram[29]:         0         0         0         0         0         0         0         0         0         0         0         0         0         0         0         0 
dram[30]:         0         0         0         0         0         0         0         0         0         0         0         0         0         0         0         0 
dram[31]:         0         0         0         0         0         0         0         0         0         0         0         0         0         0         0         0 
total accesses: 0
min_bank_accesses = 0!
min_chip_accesses = 0!
number of total read accesses:
dram[0]:       432       448       448       448       448       448       420       420       384       384       384       384       384       384       384       384 
[...]
Read = 6584 
Write = 0 
L2_Alloc = 0 
L2_WB = 2065 
n_act = 245 
n_pre = 229 
n_ref = 0 
n_req = 7106 
total_req = 8649 

Dual Bus Interface Util: 
issued_total_row = 474 
issued_total_col = 8649 
Row_Bus_Util =  0.017600 
CoL_Bus_Util = 0.321142 
Either_Row_CoL_Bus_Util = 0.327974 
Issued_on_Two_Bus_Simul_Util = 0.010768 
issued_two_Eff = 0.032831 
queue_avg = 8.714466 


dram_util_bins: 0 0 0 0 0 0 0 0 0 0
dram_eff_bins: 0 0 0 0 0 0 0 0 0 0
mrqq: max=64 avg=8.71447
Memory Partition 28: 
Cache L2_bank_056:

Cache L2_bank_057:

In Dram Latency Queue (total = 75): 
DRAM[28]: 16 bks, busW=16 BL=2 CL=12, tRRD=3 tCCD=1, tRCD=12 tRAS=28 tRP=12 tRC=40
n_cmd=26932 n_nop=18076 n_act=262 n_pre=246 n_ref_event=0 n_req=7106 n_rd=6588 n_rd_L2_A=0 n_write=0 n_wr_bk=2065 bw_util=0.3213
n_activity=15547 dram_eff=0.5566
bk0: 448a 25020i bk1: 448a 25111i bk2: 448a 24813i bk3: 448a 24399i bk4: 448a 25147i bk5: 448a 25328i bk6: 424a 25389i bk7: 420a 25279i bk8: 384a 24877i bk9: 384a 24679i bk10: 384a 25500i bk11: 384a 25523i bk12: 384a 25261i bk13: 384a 25140i bk14: 384a 24817i bk15: 368a 25162i 

------------------------------------------------------------------------

Row_Buffer_Locality = 0.963125
Row_Buffer_Locality_read = 0.967061
Row_Buffer_Locality_write = 0.912959
Bank_Level_Parallism = 2.730198
Bank_Level_Parallism_Col = 2.546321
Bank_Level_Parallism_Ready = 1.554374
write_to_read_ratio_blp_rw_average = 0.300123
GrpLevelPara = 2.142414 

BW Util details:
bwutil = 0.321291 
total_CMD = 26932 
util_bw = 8653 
Wasted_Col = 4288 
Wasted_Row = 454 
Idle = 13537 

BW Util Bottlenecks: 
RCDc_limit = 1032 
RCDWRc_limit = 246 
WTRc_limit = 1579 
RTWc_limit = 3135 
CCDLc_limit = 2839 
rwq = 0 
CCDLc_limit_alone = 2374 
WTRc_limit_alone = 1366 
RTWc_limit_alone = 2883 

Commands details: 
total_CMD = 26932 
n_nop = 18076 
Read = 6588 
Write = 0 
L2_Alloc = 0 
L2_WB = 2065 
n_act = 262 
n_pre = 246 
n_ref = 0 
n_req = 7106 
total_req = 8653 

Dual Bus Interface Util: 
issued_total_row = 508 
issued_total_col = 8653 
Row_Bus_Util =  0.018862 
CoL_Bus_Util = 0.321291 
Either_Row_CoL_Bus_Util = 0.328828 
Issued_on_Two_Bus_Simul_Util = 0.011325 
issued_two_Eff = 0.034440 
queue_avg = 8.441408 


dram_util_bins: 0 0 0 0 0 0 0 0 0 0
dram_eff_bins: 0 0 0 0 0 0 0 0 0 0
mrqq: max=64 avg=8.44141
Memory Partition 29: 
Cache L2_bank_058:

Cache L2_bank_059:

In Dram Latency Queue (total = 93): 
DRAM[29]: 16 bks, busW=16 BL=2 CL=12, tRRD=3 tCCD=1, tRCD=12 tRAS=28 tRP=12 tRC=40
n_cmd=26932 n_nop=18106 n_act=251 n_pre=235 n_ref_event=0 n_req=7099 n_rd=6584 n_rd_L2_A=0 n_write=0 n_wr_bk=2056 bw_util=0.3208
n_activity=15579 dram_eff=0.5546
bk0: 448a 25311i bk1: 448a 24903i bk2: 448a 24629i bk3: 448a 24510i bk4: 448a 24965i bk5: 448a 25047i bk6: 424a 25335i bk7: 416a 25353i bk8: 384a 25024i bk9: 384a 24699i bk10: 384a 25640i bk11: 384a 25187i bk12: 384a 25375i bk13: 384a 25360i bk14: 384a 25192i bk15: 368a 25201i 

------------------------------------------------------------------------

Row_Buffer_Locality = 0.964643
Row_Buffer_Locality_read = 0.968109
Row_Buffer_Locality_write = 0.920233
Bank_Level_Parallism = 2.720585
Bank_Level_Parallism_Col = 2.541378
Bank_Level_Parallism_Ready = 1.533218
write_to_read_ratio_blp_rw_average = 0.307243
GrpLevelPara = 2.124408 

BW Util details:
bwutil = 0.320808 
total_CMD = 26932 
util_bw = 8640 
Wasted_Col = 4276 
Wasted_Row = 419 
Idle = 13597 

BW Util Bottlenecks: 
RCDc_limit = 977 
RCDWRc_limit = 201 
WTRc_limit = 1467 
RTWc_limit = 3296 
CCDLc_limit = 2833 
rwq = 0 
CCDLc_limit_alone = 2325 
WTRc_limit_alone = 1217 
RTWc_limit_alone = 3038 

Commands details: 
total_CMD = 26932 
n_nop = 18106 
Read = 6584 
Write = 0 
L2_Alloc = 0 
L2_WB = 2056 
n_act = 251 
n_pre = 235 
n_ref = 0 
n_req = 7099 
total_req = 8640 

Dual Bus Interface Util: 
issued_total_row = 486 
issued_total_col = 8640 
Row_Bus_Util =  0.018045 
CoL_Bus_Util = 0.320808 
Either_Row_CoL_Bus_Util = 0.327714 
Issued_on_Two_Bus_Simul_Util = 0.011139 
issued_two_Eff = 0.033990 
queue_avg = 8.927744 


dram_util_bins: 0 0 0 0 0 0 0 0 0 0
dram_eff_bins: 0 0 0 0 0 0 0 0 0 0
mrqq: max=64 avg=8.92774
Memory Partition 30: 
Cache L2_bank_060:

Cache L2_bank_061:

In Dram Latency Queue (total = 59): 
DRAM[30]: 16 bks, busW=16 BL=2 CL=12, tRRD=3 tCCD=1, tRCD=12 tRAS=28 tRP=12 tRC=40
n_cmd=26932 n_nop=18146 n_act=247 n_pre=231 n_ref_event=0 n_req=7091 n_rd=6580 n_rd_L2_A=0 n_write=0 n_wr_bk=2033 bw_util=0.3198
n_activity=15402 dram_eff=0.5592
bk0: 448a 25016i bk1: 448a 24685i bk2: 448a 24720i bk3: 448a 24517i bk4: 448a 25068i bk5: 448a 24943i bk6: 420a 25360i bk7: 416a 25404i bk8: 384a 25016i bk9: 384a 24500i bk10: 384a 25636i bk11: 384a 25275i bk12: 384a 25241i bk13: 384a 24845i bk14: 384a 24896i bk15: 368a 25321i 

------------------------------------------------------------------------

Row_Buffer_Locality = 0.965162
Row_Buffer_Locality_read = 0.968394
Row_Buffer_Locality_write = 0.923379
Bank_Level_Parallism = 2.870672
Bank_Level_Parallism_Col = 2.685822
Bank_Level_Parallism_Ready = 1.546616
write_to_read_ratio_blp_rw_average = 0.317621
GrpLevelPara = 2.172166 

BW Util details:
bwutil = 0.319805 
total_CMD = 26932 
util_bw = 8613 
Wasted_Col = 4094 
Wasted_Row = 376 
Idle = 13849 

BW Util Bottlenecks: 
RCDc_limit = 903 
RCDWRc_limit = 216 
WTRc_limit = 1278 
RTWc_limit = 3959 
CCDLc_limit = 2891 
rwq = 0 
CCDLc_limit_alone = 2292 
WTRc_limit_alone = 1109 
RTWc_limit_alone = 3529 

Commands details: 
total_CMD = 26932 
n_nop = 18146 
Read = 6580 
Write = 0 
L2_Alloc = 0 
L2_WB = 2033 
n_act = 247 
n_pre = 231 
n_ref = 0 
n_req = 7091 
total_req = 8613 

Dual Bus Interface Util: 
issued_total_row = 478 
issued_total_col = 8613 
Row_Bus_Util =  0.017748 
CoL_Bus_Util = 0.319805 
Either_Row_CoL_Bus_Util = 0.326229 
Issued_on_Two_Bus_Simul_Util = 0.011325 
issued_two_Eff = 0.034714 
queue_avg = 8.744319 


dram_util_bins: 0 0 0 0 0 0 0 0 0 0
dram_eff_bins: 0 0 0 0 0 0 0 0 0 0
mrqq: max=64 avg=8.74432
Memory Partition 31: 
Cache L2_bank_062:

Cache L2_bank_063:

In Dram Latency Queue (total = 70): 
DRAM[31]: 16 bks, busW=16 BL=2 CL=12, tRRD=3 tCCD=1, tRCD=12 tRAS=28 tRP=12 tRC=40
n_cmd=26932 n_nop=18141 n_act=245 n_pre=229 n_ref_event=0 n_req=7089 n_rd=6581 n_rd_L2_A=0 n_write=0 n_wr_bk=2020 bw_util=0.3194
n_activity=15052 dram_eff=0.5714
bk0: 448a 25178i bk1: 448a 25115i bk2: 448a 24798i bk3: 448a 24599i bk4: 448a 24523i bk5: 448a 25047i bk6: 421a 25118i bk7: 416a 25374i bk8: 384a 24952i bk9: 384a 24699i bk10: 384a 25651i bk11: 384a 25560i bk12: 384a 25320i bk13: 384a 25185i bk14: 384a 25166i bk15: 368a 25299i 

------------------------------------------------------------------------

Row_Buffer_Locality = 0.965435
Row_Buffer_Locality_read = 0.969458
Row_Buffer_Locality_write = 0.913215
Bank_Level_Parallism = 2.796559
Bank_Level_Parallism_Col = 2.609547
Bank_Level_Parallism_Ready = 1.531566
write_to_read_ratio_blp_rw_average = 0.311704
GrpLevelPara = 2.176671 

BW Util details:
bwutil = 0.319360 
total_CMD = 26932 
util_bw = 8601 
Wasted_Col = 4047 
Wasted_Row = 373 
Idle = 13911 

BW Util Bottlenecks: 
RCDc_limit = 872 
RCDWRc_limit = 257 
WTRc_limit = 1552 
RTWc_limit = 3221 
CCDLc_limit = 2871 
rwq = 0 
CCDLc_limit_alone = 2299 
WTRc_limit_alone = 1323 
RTWc_limit_alone = 2878 

Commands details: 
total_CMD = 26932 
n_nop = 18141 
Read = 6581 
Write = 0 
L2_Alloc = 0 
L2_WB = 2020 
n_act = 245 
n_pre = 229 
n_ref = 0 
n_req = 7089 
total_req = 8601 

Dual Bus Interface Util: 
issued_total_row = 474 
issued_total_col = 8601 
Row_Bus_Util =  0.017600 
CoL_Bus_Util = 0.319360 
Either_Row_CoL_Bus_Util = 0.326415 
Issued_on_Two_Bus_Simul_Util = 0.010545 
issued_two_Eff = 0.032306 
queue_avg = 8.852369 


dram_util_bins: 0 0 0 0 0 0 0 0 0 0
dram_eff_bins: 0 0 0 0 0 0 0 0 0 0
mrqq: max=64 avg=8.85237

========= L2 cache stats =========
L2_cache_bank[0]: Access = 15729, Miss = 5424, Miss_rate = 0.345, Pending_hits = 48, Reservation_fails = 62
L2_cache_bank[1]: Access = 15910, Miss = 5578, Miss_rate = 0.351, Pending_hits = 5, Reservation_fails = 0
L2_cache_bank[2]: Access = 15373, Miss = 5598, Miss_rate = 0.364, Pending_hits = 0, Reservation_fails = 163
L2_cache_bank[3]: Access = 15471, Miss = 5593, Miss_rate = 0.362, Pending_hits = 12, Reservation_fails = 581
L2_cache_bank[4]: Access = 15600, Miss = 5570, Miss_rate = 0.357, Pending_hits = 4, Reservation_fails = 101
L2_cache_bank[5]: Access = 15549, Miss = 5576, Miss_rate = 0.359, Pending_hits = 23, Reservation_fails = 549
L2_cache_bank[6]: Access = 15481, Miss = 5592, Miss_rate = 0.361, Pending_hits = 8, Reservation_fails = 94
L2_cache_bank[7]: Access = 15475, Miss = 5567, Miss_rate = 0.360, Pending_hits = 4, Reservation_fails = 431
L2_cache_bank[8]: Access = 15573, Miss = 5568, Miss_rate = 0.358, Pending_hits = 8, Reservation_fails = 161
L2_cache_bank[9]: Access = 15598, Miss = 5567, Miss_rate = 0.357, Pending_hits = 16, Reservation_fails = 542
L2_cache_bank[10]: Access = 15623, Miss = 5576, Miss_rate = 0.357, Pending_hits = 23, Reservation_fails = 140
L2_cache_bank[11]: Access = 15504, Miss = 5515, Miss_rate = 0.356, Pending_hits = 8, Reservation_fails = 479
L2_cache_bank[12]: Access = 15776, Miss = 5556, Miss_rate = 0.352, Pending_hits = 16, Reservation_fails = 193
L2_cache_bank[13]: Access = 15598, Miss = 5491, Miss_rate = 0.352, Pending_hits = 8, Reservation_fails = 406
L2_cache_bank[14]: Access = 15663, Miss = 5580, Miss_rate = 0.356, Pending_hits = 3, Reservation_fails = 65
L2_cache_bank[15]: Access = 15564, Miss = 5496, Miss_rate = 0.353, Pending_hits = 4, Reservation_fails = 403
L2_cache_bank[16]: Access = 16017, Miss = 5597, Miss_rate = 0.349, Pending_hits = 178, Reservation_fails = 81
L2_cache_bank[17]: Access = 15786, Miss = 5476, Miss_rate = 0.347, Pending_hits = 45, Reservation_fails = 29
L2_cache_bank[18]: Access = 15608, Miss = 5649, Miss_rate = 0.362, Pending_hits = 56, Reservation_fails = 0
L2_cache_bank[19]: Access = 15461, Miss = 5496, Miss_rate = 0.355, Pending_hits = 17, Reservation_fails = 503
L2_cache_bank[20]: Access = 15564, Miss = 5638, Miss_rate = 0.362, Pending_hits = 47, Reservation_fails = 0
L2_cache_bank[21]: Access = 15580, Miss = 5482, Miss_rate = 0.352, Pending_hits = 11, Reservation_fails = 301
L2_cache_bank[22]: Access = 15704, Miss = 5637, Miss_rate = 0.359, Pending_hits = 53, Reservation_fails = 0
L2_cache_bank[23]: Access = 15604, Miss = 5464, Miss_rate = 0.350, Pending_hits = 24, Reservation_fails = 63
L2_cache_bank[24]: Access = 15864, Miss = 5640, Miss_rate = 0.356, Pending_hits = 105, Reservation_fails = 0
L2_cache_bank[25]: Access = 15800, Miss = 5484, Miss_rate = 0.347, Pending_hits = 40, Reservation_fails = 111
L2_cache_bank[26]: Access = 15763, Miss = 5641, Miss_rate = 0.358, Pending_hits = 73, Reservation_fails = 0
L2_cache_bank[27]: Access = 15693, Miss = 5503, Miss_rate = 0.351, Pending_hits = 38, Reservation_fails = 60
L2_cache_bank[28]: Access = 16036, Miss = 5576, Miss_rate = 0.348, Pending_hits = 110, Reservation_fails = 0
L2_cache_bank[29]: Access = 15905, Miss = 5467, Miss_rate = 0.344, Pending_hits = 41, Reservation_fails = 123
L2_cache_bank[30]: Access = 15928, Miss = 5609, Miss_rate = 0.352, Pending_hits = 58, Reservation_fails = 0
L2_cache_bank[31]: Access = 15753, Miss = 5480, Miss_rate = 0.348, Pending_hits = 25, Reservation_fails = 348
L2_cache_bank[32]: Access = 16014, Miss = 5594, Miss_rate = 0.349, Pending_hits = 9, Reservation_fails = 1
L2_cache_bank[33]: Access = 15818, Miss = 5453, Miss_rate = 0.345, Pending_hits = 113, Reservation_fails = 0
L2_cache_bank[34]: Access = 15593, Miss = 5645, Miss_rate = 0.362, Pending_hits = 20, Reservation_fails = 0
L2_cache_bank[35]: Access = 15406, Miss = 5492, Miss_rate = 0.356, Pending_hits = 88, Reservation_fails = 194
L2_cache_bank[36]: Access = 15695, Miss = 5616, Miss_rate = 0.358, Pending_hits = 8, Reservation_fails = 0
L2_cache_bank[37]: Access = 15455, Miss = 5480, Miss_rate = 0.355, Pending_hits = 92, Reservation_fails = 39
L2_cache_bank[38]: Access = 15612, Miss = 5604, Miss_rate = 0.359, Pending_hits = 27, Reservation_fails = 0
L2_cache_bank[39]: Access = 15502, Miss = 5493, Miss_rate = 0.354, Pending_hits = 93, Reservation_fails = 337
L2_cache_bank[40]: Access = 15787, Miss = 5626, Miss_rate = 0.356, Pending_hits = 24, Reservation_fails = 30
L2_cache_bank[41]: Access = 15612, Miss = 5468, Miss_rate = 0.350, Pending_hits = 72, Reservation_fails = 214
L2_cache_bank[42]: Access = 15635, Miss = 5620, Miss_rate = 0.359, Pending_hits = 31, Reservation_fails = 0
L2_cache_bank[43]: Access = 15686, Miss = 5493, Miss_rate = 0.350, Pending_hits = 87, Reservation_fails = 165
L2_cache_bank[44]: Access = 15976, Miss = 5592, Miss_rate = 0.350, Pending_hits = 57, Reservation_fails = 25
L2_cache_bank[45]: Access = 15880, Miss = 5438, Miss_rate = 0.342, Pending_hits = 48, Reservation_fails = 192
L2_cache_bank[46]: Access = 15941, Miss = 5608, Miss_rate = 0.352, Pending_hits = 19, Reservation_fails = 40
L2_cache_bank[47]: Access = 15834, Miss = 5460, Miss_rate = 0.345, Pending_hits = 85, Reservation_fails = 256
L2_cache_bank[48]: Access = 16011, Miss = 5632, Miss_rate = 0.352, Pending_hits = 58, Reservation_fails = 0
L2_cache_bank[49]: Access = 15723, Miss = 5412, Miss_rate = 0.344, Pending_hits = 8, Reservation_fails = 71
L2_cache_bank[50]: Access = 15552, Miss = 5652, Miss_rate = 0.363, Pending_hits = 10, Reservation_fails = 0
L2_cache_bank[51]: Access = 15267, Miss = 5460, Miss_rate = 0.358, Pending_hits = 20, Reservation_fails = 206
L2_cache_bank[52]: Access = 15697, Miss = 5644, Miss_rate = 0.360, Pending_hits = 8, Reservation_fails = 0
L2_cache_bank[53]: Access = 15466, Miss = 5447, Miss_rate = 0.352, Pending_hits = 24, Reservation_fails = 66
L2_cache_bank[54]: Access = 15563, Miss = 5625, Miss_rate = 0.361, Pending_hits = 3, Reservation_fails = 0
L2_cache_bank[55]: Access = 15361, Miss = 5448, Miss_rate = 0.355, Pending_hits = 20, Reservation_fails = 33
L2_cache_bank[56]: Access = 15650, Miss = 5635, Miss_rate = 0.360, Pending_hits = 24, Reservation_fails = 0
L2_cache_bank[57]: Access = 15425, Miss = 5436, Miss_rate = 0.352, Pending_hits = 18, Reservation_fails = 16
L2_cache_bank[58]: Access = 15577, Miss = 5628, Miss_rate = 0.361, Pending_hits = 20, Reservation_fails = 0
L2_cache_bank[59]: Access = 15390, Miss = 5456, Miss_rate = 0.355, Pending_hits = 18, Reservation_fails = 4
L2_cache_bank[60]: Access = 15794, Miss = 5592, Miss_rate = 0.354, Pending_hits = 22, Reservation_fails = 0
L2_cache_bank[61]: Access = 15649, Miss = 5404, Miss_rate = 0.345, Pending_hits = 16, Reservation_fails = 53
L2_cache_bank[62]: Access = 15801, Miss = 5620, Miss_rate = 0.356, Pending_hits = 4, Reservation_fails = 0
L2_cache_bank[63]: Access = 15417, Miss = 5394, Miss_rate = 0.350, Pending_hits = 8, Reservation_fails = 177
L2_total_cache_accesses = 1002342
L2_total_cache_misses = 354853
L2_total_cache_miss_rate = 0.3540
L2_total_cache_pending_hits = 2265
L2_total_cache_reservation_fails = 8108
L2_total_cache_breakdown:
	L2_cache_stats_breakdown[GLOBAL_ACC_R][HIT] = 645224
	L2_cache_stats_breakdown[GLOBAL_ACC_R][HIT_RESERVED] = 2265
	L2_cache_stats_breakdown[GLOBAL_ACC_R][MISS] = 53185
	L2_cache_stats_breakdown[GLOBAL_ACC_R][RESERVATION_FAIL] = 8108
	L2_cache_stats_breakdown[GLOBAL_ACC_R][SECTOR_MISS] = 159537
	L2_cache_stats_breakdown[LOCAL_ACC_R][HIT] = 0
	L2_cache_stats_breakdown[LOCAL_ACC_R][HIT_RESERVED] = 0
	L2_cache_stats_breakdown[LOCAL_ACC_R][MISS] = 0
	L2_cache_stats_breakdown[LOCAL_ACC_R][RESERVATION_FAIL] = 0
	L2_cache_stats_breakdown[LOCAL_ACC_R][SECTOR_MISS] = 0
	L2_cache_stats_breakdown[CONST_ACC_R][HIT] = 0
	L2_cache_stats_breakdown[CONST_ACC_R][HIT_RESERVED] = 0
	L2_cache_stats_breakdown[CONST_ACC_R][MISS] = 0
	L2_cache_stats_breakdown[CONST_ACC_R][RESERVATION_FAIL] = 0
	L2_cache_stats_breakdown[CONST_ACC_R][SECTOR_MISS] = 0
	L2_cache_stats_breakdown[TEXTURE_ACC_R][HIT] = 0
	L2_cache_stats_breakdown[TEXTURE_ACC_R][HIT_RESERVED] = 0
	L2_cache_stats_breakdown[TEXTURE_ACC_R][MISS] = 0
	L2_cache_stats_breakdown[TEXTURE_ACC_R][RESERVATION_FAIL] = 0
	L2_cache_stats_breakdown[TEXTURE_ACC_R][SECTOR_MISS] = 0
	L2_cache_stats_breakdown[GLOBAL_ACC_W][HIT] = 0
	L2_cache_stats_breakdown[GLOBAL_ACC_W][HIT_RESERVED] = 0
	L2_cache_stats_breakdown[GLOBAL_ACC_W][MISS] = 34532
	L2_cache_stats_breakdown[GLOBAL_ACC_W][RESERVATION_FAIL] = 0
	L2_cache_stats_breakdown[GLOBAL_ACC_W][SECTOR_MISS] = 107599
	L2_cache_stats_breakdown[LOCAL_ACC_W][HIT] = 0
	L2_cache_stats_breakdown[LOCAL_ACC_W][HIT_RESERVED] = 0
	L2_cache_stats_breakdown[LOCAL_ACC_W][MISS] = 0
	L2_cache_stats_breakdown[LOCAL_ACC_W][RESERVATION_FAIL] = 0
	L2_cache_stats_breakdown[LOCAL_ACC_W][SECTOR_MISS] = 0
	L2_cache_stats_breakdown[L1_WRBK_ACC][HIT] = 0
	L2_cache_stats_breakdown[L1_WRBK_ACC][HIT_RESERVED] = 0
	L2_cache_stats_breakdown[L1_WRBK_ACC][MISS] = 0
	L2_cache_stats_breakdown[L1_WRBK_ACC][RESERVATION_FAIL] = 0
	L2_cache_stats_breakdown[L1_WRBK_ACC][SECTOR_MISS] = 0
	L2_cache_stats_breakdown[L2_WRBK_ACC][HIT] = 0
	L2_cache_stats_breakdown[L2_WRBK_ACC][HIT_RESERVED] = 0
	L2_cache_stats_breakdown[L2_WRBK_ACC][MISS] = 0
	L2_cache_stats_breakdown[L2_WRBK_ACC][RESERVATION_FAIL] = 0
	L2_cache_stats_breakdown[L2_WRBK_ACC][SECTOR_MISS] = 0
	L2_cache_stats_breakdown[INST_ACC_R][HIT] = 0
	L2_cache_stats_breakdown[INST_ACC_R][HIT_RESERVED] = 0
	L2_cache_stats_breakdown[INST_ACC_R][MISS] = 0
	L2_cache_stats_breakdown[INST_ACC_R][RESERVATION_FAIL] = 0
	L2_cache_stats_breakdown[INST_ACC_R][SECTOR_MISS] = 0
	L2_cache_stats_breakdown[L1_WR_ALLOC_R][HIT] = 0
	L2_cache_stats_breakdown[L1_WR_ALLOC_R][HIT_RESERVED] = 0
	L2_cache_stats_breakdown[L1_WR_ALLOC_R][MISS] = 0
	L2_cache_stats_breakdown[L1_WR_ALLOC_R][RESERVATION_FAIL] = 0
	L2_cache_stats_breakdown[L1_WR_ALLOC_R][SECTOR_MISS] = 0
	L2_cache_stats_breakdown[L2_WR_ALLOC_R][HIT] = 0
	L2_cache_stats_breakdown[L2_WR_ALLOC_R][HIT_RESERVED] = 0
	L2_cache_stats_breakdown[L2_WR_ALLOC_R][MISS] = 0
	L2_cache_stats_breakdown[L2_WR_ALLOC_R][RESERVATION_FAIL] = 0
	L2_cache_stats_breakdown[L2_WR_ALLOC_R][SECTOR_MISS] = 0
	L2_cache_stats_breakdown[GLOBAL_ACC_R][TOTAL_ACCESS] = 860211
	L2_cache_stats_breakdown[GLOBAL_ACC_W][TOTAL_ACCESS] = 142131
L2_total_cache_reservation_fail_breakdown:
	L2_cache_stats_fail_breakdown[GLOBAL_ACC_R][MSHR_ENRTY_FAIL] = 8108
L2_cache_data_port_util = 0.297
L2_cache_fill_port_util = 0.092

icnt_total_pkts_mem_to_simt=1000440
icnt_total_pkts_simt_to_mem=1010369
LD_mem_lat_dist  0 0 0 0 0 0 0 0 0 0 0 0 0 0 0 0 0 0 0 0 0 0 0 0 0 0 0
ST_mem_lat_dist  0 0 0 0 0 0 0 0 0 0 0 0 0 0 0 0 0 0 0 0 0 0 0 0 0 0 0
----------------------------Interconnect-DETAILS--------------------------------
Req_Network_injected_packets_num = 1010369
Req_Network_cycles = 35867
Req_Network_injected_packets_per_cycle =      28.1699 
Req_Network_conflicts_per_cycle =      29.6115
Req_Network_conflicts_per_cycle_util =      35.0439
Req_Bank_Level_Parallism =      33.2668
Req_Network_in_buffer_full_per_cycle =       0.0000
Req_Network_in_buffer_avg_util =      49.6625
Req_Network_out_buffer_full_per_cycle =       0.0000
Req_Network_out_buffer_avg_util =       2.0881

Reply_Network_injected_packets_num = 1000508
Reply_Network_cycles = 35867
Reply_Network_injected_packets_per_cycle =       27.8949
Reply_Network_conflicts_per_cycle =       12.4373
Reply_Network_conflicts_per_cycle_util =      14.9921
Reply_Bank_Level_Parallism =      33.6237
Reply_Network_in_buffer_full_per_cycle =       0.0000
Reply_Network_in_buffer_avg_util =       8.9000
Reply_Network_out_buffer_full_per_cycle =       0.0000
Reply_Network_out_buffer_avg_util =       0.3487
----------------------------END-of-Interconnect-DETAILS-------------------------


gpgpu_simulation_time = 0 days, 0 hrs, 7 min, 55 sec (475 sec)
gpgpu_simulation_rate = 168792 (inst/sec)
gpgpu_simulation_rate = 75 (cycle/sec)
gpgpu_silicon_slowdown = 15093333x
GPGPU-Sim: *** simulation thread exiting ***
GPGPU-Sim: ** break due to reaching the maximum cycles (or instructions) **
GPGPU-Sim: *** exit detected ***
