

        *** GPGPU-Sim Simulator Version 4.0.0  [build gpgpu-sim_git-commit-ffe0a1a00e984ecce9bf36e17ab94c4de0de8108_modified_0.0] ***


GPGPU-Sim PTX: simulation mode 0 (can change with PTX_SIM_MODE_FUNC environment variable:
               1=functional simulation only, 0=detailed performance simulator)
GPGPU-Sim PTX: overriding embedded ptx with ptx file (PTX_SIM_USE_PTX_FILE is set)
GPGPU-Sim: Configuration options:

-save_embedded_ptx                      0 # saves ptx files embedded in binary as <n>.ptx
-keep                                   0 # keep intermediate files created by GPGPU-Sim when interfacing with external programs
-gpgpu_ptx_save_converted_ptxplus                    0 # Saved converted ptxplus to a file
-gpgpu_occupancy_sm_number                   70 # The SM number to pass to ptxas when getting register usage for computing GPU occupancy. This parameter is required in the config.
-ptx_opcode_latency_int      4,13,4,5,145,21 # Opcode latencies for integers <ADD,MAX,MUL,MAD,DIV,SHFL>Default 1,1,19,25,145,32
-ptx_opcode_latency_fp          4,13,4,5,39 # Opcode latencies for single precision floating points <ADD,MAX,MUL,MAD,DIV>Default 1,1,1,1,30
-ptx_opcode_latency_dp         8,19,8,8,330 # Opcode latencies for double precision floating points <ADD,MAX,MUL,MAD,DIV>Default 8,8,8,8,335
-ptx_opcode_latency_sfu                  100 # Opcode latencies for SFU instructionsDefault 8
-ptx_opcode_latency_tesnor                   64 # Opcode latencies for Tensor instructionsDefault 64
-ptx_opcode_initiation_int          2,2,2,2,8,4 # Opcode initiation intervals for integers <ADD,MAX,MUL,MAD,DIV,SHFL>Default 1,1,4,4,32,4
-ptx_opcode_initiation_fp            2,2,2,2,4 # Opcode initiation intervals for single precision floating points <ADD,MAX,MUL,MAD,DIV>Default 1,1,1,1,5
-ptx_opcode_initiation_dp          4,4,4,4,130 # Opcode initiation intervals for double precision floating points <ADD,MAX,MUL,MAD,DIV>Default 8,8,8,8,130
-ptx_opcode_initiation_sfu                    8 # Opcode initiation intervals for sfu instructionsDefault 8
-ptx_opcode_initiation_tensor                   64 # Opcode initiation intervals for tensor instructionsDefault 64
-cdp_latency         7200,8000,100,12000,1600 # CDP API latency <cudaStreamCreateWithFlags, cudaGetParameterBufferV2_init_perWarp, cudaGetParameterBufferV2_perKernel, cudaLaunchDeviceV2_init_perWarp, cudaLaunchDevicV2_perKernel>Default 7200,8000,100,12000,1600
-network_mode                           2 # Interconnection network mode
-inter_config_file                   mesh # Interconnection network config file
-icnt_in_buffer_limit                  512 # in_buffer_limit
-icnt_out_buffer_limit                  512 # out_buffer_limit
-icnt_subnets                           2 # subnets
-icnt_arbiter_algo                      1 # arbiter_algo
-icnt_verbose                           0 # inct_verbose
-icnt_grant_cycles                      1 # grant_cycles
-gpgpu_ptx_use_cuobjdump                    1 # Use cuobjdump to extract ptx and sass from binaries
-gpgpu_experimental_lib_support                    0 # Try to extract code from cuda libraries [Broken because of unknown cudaGetExportTable]
-checkpoint_option                      0 #  checkpointing flag (0 = no checkpoint)
-checkpoint_kernel                      1 #  checkpointing during execution of which kernel (1- 1st kernel)
-checkpoint_CTA                         0 #  checkpointing after # of CTA (< less than total CTA)
-resume_option                          0 #  resume flag (0 = no resume)
-resume_kernel                          0 #  Resume from which kernel (1= 1st kernel)
-resume_CTA                             0 #  resume from which CTA 
-checkpoint_CTA_t                       0 #  resume from which CTA 
-checkpoint_insn_Y                      0 #  resume from which CTA 
-gpgpu_ptx_convert_to_ptxplus                    0 # Convert SASS (native ISA) to ptxplus and run ptxplus
-gpgpu_ptx_force_max_capability                   70 # Force maximum compute capability
-gpgpu_ptx_inst_debug_to_file                    0 # Dump executed instructions' debug information to file
-gpgpu_ptx_inst_debug_file       inst_debug.txt # Executed instructions' debug output file
-gpgpu_ptx_inst_debug_thread_uid                    1 # Thread UID for executed instructions' debug output
-gpgpu_n_mem_for_l2wb_pcommit                   32 # number of memory modules (e.g. memory controllers) in gpu
-gpgpu_n_sub_partition_per_mchannel_for_l2wb_pcommit                    2 # number of memory subpartition in each memory module
-gpgpu_dl2_bsize_for_l2wb_pcommit                  128 # default 128 bytes
-gpgpu_simd_model                       1 # 1 = post-dominator
-gpgpu_shader_core_pipeline              2048:32 # shader core pipeline config, i.e., {<nthread>:<warpsize>}
-gpgpu_tex_cache:l1  N:4:128:256,L:R:m:N:L,T:512:8,128:2 # per-shader L1 texture cache  (READ-ONLY) config  {<nsets>:<bsize>:<assoc>,<rep>:<wr>:<alloc>:<wr_alloc>,<mshr>:<N>:<merge>,<mq>:<rf>}
-gpgpu_const_cache:l1 N:128:64:8,L:R:f:N:L,S:2:64,4 # per-shader L1 constant memory cache  (READ-ONLY) config  {<nsets>:<bsize>:<assoc>,<rep>:<wr>:<alloc>:<wr_alloc>,<mshr>:<N>:<merge>,<mq>} 
-gpgpu_cache:il1     N:64:128:16,L:R:f:N:L,S:2:48,4 # shader L1 instruction cache config  {<nsets>:<bsize>:<assoc>,<rep>:<wr>:<alloc>:<wr_alloc>,<mshr>:<N>:<merge>,<mq>} 
-gpgpu_cache:dl1     S:1:128:256,L:L:s:N:L,A:256:8,16:0,32 # per-shader L1 data cache config  {<nsets>:<bsize>:<assoc>,<rep>:<wr>:<alloc>:<wr_alloc>,<mshr>:<N>:<merge>,<mq> | none}
-gpgpu_l1_banks                         4 # The number of L1 cache banks
-gpgpu_l1_banks_byte_interleaving                   32 # l1 banks byte interleaving granularity
-gpgpu_l1_banks_hashing_function                    0 # l1 banks hashing function
-gpgpu_l1_latency                      20 # L1 Hit Latency
-gpgpu_smem_latency                    20 # smem Latency
-gpgpu_cache:dl1PrefL1                 none # per-shader L1 data cache config  {<nsets>:<bsize>:<assoc>,<rep>:<wr>:<alloc>:<wr_alloc>,<mshr>:<N>:<merge>,<mq> | none}
-gpgpu_cache:dl1PrefShared                 none # per-shader L1 data cache config  {<nsets>:<bsize>:<assoc>,<rep>:<wr>:<alloc>:<wr_alloc>,<mshr>:<N>:<merge>,<mq> | none}
-gpgpu_gmem_skip_L1D                    0 # global memory access skip L1D cache (implements -Xptxas -dlcm=cg, default=no skip)
-gpgpu_perfect_mem                      0 # enable perfect memory mode (no cache miss)
-n_regfile_gating_group                    4 # group of lanes that should be read/written together)
-gpgpu_clock_gated_reg_file                    0 # enable clock gated reg file for power calculations
-gpgpu_clock_gated_lanes                    0 # enable clock gated lanes for power calculations
-gpgpu_shader_registers                65536 # Number of registers per shader core. Limits number of concurrent CTAs. (default 8192)
-gpgpu_registers_per_block                65536 # Maximum number of registers per CTA. (default 8192)
-gpgpu_ignore_resources_limitation                    0 # gpgpu_ignore_resources_limitation (default 0)
-gpgpu_shader_cta                      32 # Maximum number of concurrent CTAs in shader (default 8)
-gpgpu_num_cta_barriers                   16 # Maximum number of named barriers per CTA (default 16)
-gpgpu_n_clusters                      80 # number of processing clusters
-gpgpu_n_cores_per_cluster                    1 # number of simd cores per cluster
-gpgpu_n_cluster_ejection_buffer_size                   32 # number of packets in ejection buffer
-gpgpu_n_ldst_response_buffer_size                    2 # number of response packets in ld/st unit ejection buffer
-gpgpu_shmem_per_block                65536 # Size of shared memory per thread block or CTA (default 48kB)
-gpgpu_shmem_size                   98304 # Size of shared memory per shader core (default 16kB)
-gpgpu_adaptive_cache_config            536870913 # adaptive_cache_config
-gpgpu_shmem_sizeDefault                98304 # Size of shared memory per shader core (default 16kB)
-gpgpu_shmem_size_PrefL1                16384 # Size of shared memory per shader core (default 16kB)
-gpgpu_shmem_size_PrefShared                16384 # Size of shared memory per shader core (default 16kB)
-gpgpu_shmem_num_banks                   32 # Number of banks in the shared memory in each shader core (default 16)
-gpgpu_shmem_limited_broadcast                    0 # Limit shared memory to do one broadcast per cycle (default on)
-gpgpu_shmem_warp_parts                    1 # Number of portions a warp is divided into for shared memory bank conflict check 
-gpgpu_mem_unit_ports                    1 # The number of memory transactions allowed per core cycle
-gpgpu_shmem_warp_parts                    1 # Number of portions a warp is divided into for shared memory bank conflict check 
-gpgpu_warpdistro_shader                   -1 # Specify which shader core to collect the warp size distribution from
-gpgpu_warp_issue_shader                    0 # Specify which shader core to collect the warp issue distribution from
-gpgpu_local_mem_map                    1 # Mapping from local memory space address to simulated GPU physical address space (default = enabled)
-gpgpu_num_reg_banks                   16 # Number of register banks (default = 8)
-gpgpu_reg_bank_use_warp_id                    0 # Use warp ID in mapping registers to banks (default = off)
-gpgpu_sub_core_model                    1 # Sub Core Volta/Pascal model (default = off)
-gpgpu_enable_specialized_operand_collector                    0 # enable_specialized_operand_collector
-gpgpu_operand_collector_num_units_sp                    4 # number of collector units (default = 4)
-gpgpu_operand_collector_num_units_dp                    0 # number of collector units (default = 0)
-gpgpu_operand_collector_num_units_sfu                    4 # number of collector units (default = 4)
-gpgpu_operand_collector_num_units_int                    0 # number of collector units (default = 0)
-gpgpu_operand_collector_num_units_tensor_core                    4 # number of collector units (default = 4)
-gpgpu_operand_collector_num_units_mem                    2 # number of collector units (default = 2)
-gpgpu_operand_collector_num_units_gen                    8 # number of collector units (default = 0)
-gpgpu_operand_collector_num_in_ports_sp                    1 # number of collector unit in ports (default = 1)
-gpgpu_operand_collector_num_in_ports_dp                    0 # number of collector unit in ports (default = 0)
-gpgpu_operand_collector_num_in_ports_sfu                    1 # number of collector unit in ports (default = 1)
-gpgpu_operand_collector_num_in_ports_int                    0 # number of collector unit in ports (default = 0)
-gpgpu_operand_collector_num_in_ports_tensor_core                    1 # number of collector unit in ports (default = 1)
-gpgpu_operand_collector_num_in_ports_mem                    1 # number of collector unit in ports (default = 1)
-gpgpu_operand_collector_num_in_ports_gen                    8 # number of collector unit in ports (default = 0)
-gpgpu_operand_collector_num_out_ports_sp                    1 # number of collector unit in ports (default = 1)
-gpgpu_operand_collector_num_out_ports_dp                    0 # number of collector unit in ports (default = 0)
-gpgpu_operand_collector_num_out_ports_sfu                    1 # number of collector unit in ports (default = 1)
-gpgpu_operand_collector_num_out_ports_int                    0 # number of collector unit in ports (default = 0)
-gpgpu_operand_collector_num_out_ports_tensor_core                    1 # number of collector unit in ports (default = 1)
-gpgpu_operand_collector_num_out_ports_mem                    1 # number of collector unit in ports (default = 1)
-gpgpu_operand_collector_num_out_ports_gen                    8 # number of collector unit in ports (default = 0)
-gpgpu_coalesce_arch                   60 # Coalescing arch (GT200 = 13, Fermi = 20)
-gpgpu_num_sched_per_core                    4 # Number of warp schedulers per core
-gpgpu_max_insn_issue_per_warp                    1 # Max number of instructions that can be issued per warp in one cycle by scheduler (either 1 or 2)
-gpgpu_dual_issue_diff_exec_units                    1 # should dual issue use two different execution unit resources (Default = 1)
-gpgpu_simt_core_sim_order                    1 # Select the simulation order of cores in a cluster (0=Fix, 1=Round-Robin)
-gpgpu_pipeline_widths 4,4,4,4,4,4,4,4,4,4,8,4,4 # Pipeline widths ID_OC_SP,ID_OC_DP,ID_OC_INT,ID_OC_SFU,ID_OC_MEM,OC_EX_SP,OC_EX_DP,OC_EX_INT,OC_EX_SFU,OC_EX_MEM,EX_WB,ID_OC_TENSOR_CORE,OC_EX_TENSOR_CORE
-gpgpu_tensor_core_avail                    1 # Tensor Core Available (default=0)
-gpgpu_num_sp_units                     4 # Number of SP units (default=1)
-gpgpu_num_dp_units                     4 # Number of DP units (default=0)
-gpgpu_num_int_units                    4 # Number of INT units (default=0)
-gpgpu_num_sfu_units                    4 # Number of SF units (default=1)
-gpgpu_num_tensor_core_units                    4 # Number of tensor_core units (default=1)
-gpgpu_num_mem_units                    1 # Number if ldst units (default=1) WARNING: not hooked up to anything
-gpgpu_scheduler                      gto # Scheduler configuration: < lrr | gto | two_level_active > If two_level_active:<num_active_warps>:<inner_prioritization>:<outer_prioritization>For complete list of prioritization values see shader.h enum scheduler_prioritization_typeDefault: gto
-gpgpu_concurrent_kernel_sm                    0 # Support concurrent kernels on a SM (default = disabled)
-gpgpu_perfect_inst_const_cache                    1 # perfect inst and const cache mode, so all inst and const hits in the cache(default = disabled)
-gpgpu_inst_fetch_throughput                    4 # the number of fetched intruction per warp each cycle
-gpgpu_reg_file_port_throughput                    2 # the number ports of the register file
-specialized_unit_1         0,4,4,4,4,BRA # specialized unit config {<enabled>,<num_units>:<latency>:<initiation>,<ID_OC_SPEC>:<OC_EX_SPEC>,<NAME>}
-specialized_unit_2         0,4,4,4,4,BRA # specialized unit config {<enabled>,<num_units>:<latency>:<initiation>,<ID_OC_SPEC>:<OC_EX_SPEC>,<NAME>}
-specialized_unit_3         0,4,4,4,4,BRA # specialized unit config {<enabled>,<num_units>:<latency>:<initiation>,<ID_OC_SPEC>:<OC_EX_SPEC>,<NAME>}
-specialized_unit_4         0,4,4,4,4,BRA # specialized unit config {<enabled>,<num_units>:<latency>:<initiation>,<ID_OC_SPEC>:<OC_EX_SPEC>,<NAME>}
-specialized_unit_5         0,4,4,4,4,BRA # specialized unit config {<enabled>,<num_units>:<latency>:<initiation>,<ID_OC_SPEC>:<OC_EX_SPEC>,<NAME>}
-specialized_unit_6         0,4,4,4,4,BRA # specialized unit config {<enabled>,<num_units>:<latency>:<initiation>,<ID_OC_SPEC>:<OC_EX_SPEC>,<NAME>}
-specialized_unit_7         0,4,4,4,4,BRA # specialized unit config {<enabled>,<num_units>:<latency>:<initiation>,<ID_OC_SPEC>:<OC_EX_SPEC>,<NAME>}
-specialized_unit_8         0,4,4,4,4,BRA # specialized unit config {<enabled>,<num_units>:<latency>:<initiation>,<ID_OC_SPEC>:<OC_EX_SPEC>,<NAME>}
-gpgpu_perf_sim_memcpy                    1 # Fill the L2 cache on memcpy
-gpgpu_simple_dram_model                    0 # simple_dram_model with fixed latency and BW
-gpgpu_dram_scheduler                    1 # 0 = fifo, 1 = FR-FCFS (defaul)
-gpgpu_dram_partition_queues          64:64:64:64 # i2$:$2d:d2$:$2i
-l2_ideal                               0 # Use a ideal L2 cache that always hit
-gpgpu_cache:dl2     S:32:128:24,L:B:m:L:P,A:192:4,32:0,32 # unified banked L2 data cache config  {<nsets>:<bsize>:<assoc>,<rep>:<wr>:<alloc>:<wr_alloc>,<mshr>:<N>:<merge>,<mq>}
-gpgpu_cache:dl2_texture_only                    0 # L2 cache used for texture only
-gpgpu_n_mem                           32 # number of memory modules (e.g. memory controllers) in gpu
-gpgpu_n_sub_partition_per_mchannel                    2 # number of memory subpartition in each memory module
-gpgpu_n_mem_per_ctrlr                    1 # number of memory chips per memory controller
-gpgpu_memlatency_stat                   14 # track and display latency statistics 0x2 enables MC, 0x4 enables queue logs
-gpgpu_frfcfs_dram_sched_queue_size                   64 # 0 = unlimited (default); # entries per chip
-gpgpu_dram_return_queue_size                  192 # 0 = unlimited (default); # entries per chip
-gpgpu_dram_buswidth                   16 # default = 4 bytes (8 bytes per cycle at DDR)
-gpgpu_dram_burst_length                    2 # Burst length of each DRAM request (default = 4 data bus cycle)
-dram_data_command_freq_ratio                    2 # Frequency ratio between DRAM data bus and command bus (default = 2 times, i.e. DDR)
-gpgpu_dram_timing_opt nbk=16:CCD=1:RRD=3:RCD=12:RAS=28:RP=12:RC=40: CL=12:WL=2:CDLR=3:WR=10:nbkgrp=4:CCDL=2:RTPL=3 # DRAM timing parameters = {nbk:tCCD:tRRD:tRCD:tRAS:tRP:tRC:CL:WL:tCDLR:tWR:nbkgrp:tCCDL:tRTPL}
-gpgpu_l2_rop_latency                  160 # ROP queue latency (default 85)
-dram_latency                         200 # DRAM latency (default 30)
-dram_write_latency                   600 # DRAM write latency (default 100)
-dram_dual_bus_interface                    1 # dual_bus_interface (default = 0) 
-dram_bnk_indexing_policy                    0 # dram_bnk_indexing_policy (0 = normal indexing, 1 = Xoring with the higher bits) (Default = 0)
-dram_bnkgrp_indexing_policy                    1 # dram_bnkgrp_indexing_policy (0 = take higher bits, 1 = take lower bits) (Default = 0)
-dram_seperate_write_queue_enable                    0 # Seperate_Write_Queue_Enable
-dram_write_queue_size             32:28:16 # Write_Queue_Size
-dram_elimnate_rw_turnaround                    0 # elimnate_rw_turnaround i.e set tWTR and tRTW = 0
-icnt_flit_size                        40 # icnt_flit_size
-gpgpu_mem_addr_mapping dramid@8;00000000.00000000.00000000.00000000.0000RRRR.RRRRRRRR.RBBBCCCB.CCCSSSSS # mapping memory address to dram model {dramid@<start bit>;<memory address map>}
-gpgpu_mem_addr_test                    0 # run sweep test to check address mapping for aliased address
-gpgpu_mem_address_mask                    1 # 0 = old addressing mask, 1 = new addressing mask, 2 = new add. mask + flipped bank sel and chip sel bits
-gpgpu_memory_partition_indexing                    0 # 0 = no indexing, 1 = bitwise xoring, 2 = IPoly, 3 = custom indexing
-gpuwattch_xml_file         gpuwattch.xml # GPUWattch XML file
-power_simulation_enabled                    0 # Turn on power simulator (1=On, 0=Off)
-power_per_cycle_dump                    0 # Dump detailed power output each cycle
-power_trace_enabled                    0 # produce a file for the power trace (1=On, 0=Off)
-power_trace_zlevel                     6 # Compression level of the power trace output log (0=no comp, 9=highest)
-steady_power_levels_enabled                    0 # produce a file for the steady power levels (1=On, 0=Off)
-steady_state_definition                  8:4 # allowed deviation:number of samples
-gpgpu_max_cycle                        0 # terminates gpu simulation early (0 = no limit)
-gpgpu_max_insn                         0 # terminates gpu simulation early (0 = no limit)
-gpgpu_max_cta                          0 # terminates gpu simulation early (0 = no limit)
-gpgpu_max_completed_cta                 2048 # terminates gpu simulation early (0 = no limit)
-gpgpu_runtime_stat                   500 # display runtime statistics such as dram utilization {<freq>:<flag>}
-liveness_message_freq                    1 # Minimum number of seconds between simulation liveness messages (0 = always print)
-gpgpu_compute_capability_major                    7 # Major compute capability version number
-gpgpu_compute_capability_minor                    0 # Minor compute capability version number
-gpgpu_flush_l1_cache                    1 # Flush L1 cache at the end of each kernel call
-gpgpu_flush_l2_cache                    0 # Flush L2 cache at the end of each kernel call
-gpgpu_deadlock_detect                    1 # Stop the simulation at deadlock (1=on (default), 0=off)
-gpgpu_ptx_instruction_classification                    0 # if enabled will classify ptx instruction types per kernel (Max 255 kernels now)
-gpgpu_ptx_sim_mode                     0 # Select between Performance (default) or Functional simulation (1)
-gpgpu_clock_domains 1132.0:1132.0:1132.0:850.0 # Clock Domain Frequencies in MhZ {<Core Clock>:<ICNT Clock>:<L2 Clock>:<DRAM Clock>}
-gpgpu_max_concurrent_kernel                    8 # maximum kernels that can run concurrently on GPU
-gpgpu_cflog_interval                    0 # Interval between each snapshot in control flow logger
-visualizer_enabled               ef36522e2d45247004aa03edb85bd63f  /home/pli11/Videos/parboil_benchmark/parboil/benchmarks/stencil/build/nvm_default/stencil
Extracting PTX file and ptxas options    1: stencil.1.sm_70.ptx -arch=sm_70
      0 # Turn on visualizer output (1=On, 0=Off)
-visualizer_outputfile                 NULL # Specifies the output log file for visualizer
-visualizer_zlevel                      6 # Compression level of the visualizer output log (0=no comp, 9=highest)
-gpgpu_stack_size_limit                 1024 # GPU thread stack size
-gpgpu_heap_size_limit              8388608 # GPU malloc heap size 
-gpgpu_runtime_sync_depth_limit                    2 # GPU device runtime synchronize depth
-gpgpu_runtime_pending_launch_count_limit                 2048 # GPU device runtime pending launch count
-trace_enabled                          0 # Turn on traces
-trace_components                    none # comma seperated list of traces to enable. Complete list found in trace_streams.tup. Default none
-trace_sampling_core                    0 # The core which is printed using CORE_DPRINTF. Default 0
-trace_sampling_memory_partition                   -1 # The memory partition which is printed using MEMPART_DPRINTF. Default -1 (i.e. all)
-enable_ptx_file_line_stats                    1 # Turn on PTX source line statistic profiling. (1 = On)
-ptx_line_stats_filename gpgpu_inst_stats.txt # Output file for PTX source line statistics.
-gpgpu_kernel_launch_latency                 5000 # Kernel launch latency in cycles. Default: 0
-gpgpu_cdp_enabled                      0 # Turn on CDP
-gpgpu_TB_launch_latency                    0 # thread block launch latency in cycles. Default: 0
DRAM Timing Options:
nbk                                    16 # number of banks
CCD                                     1 # column to column delay
RRD                                     3 # minimal delay between activation of rows in different banks
RCD                                    12 # row to column delay
RAS                                    28 # time needed to activate row
RP                                     12 # time needed to precharge (deactivate) row
RC                                     40 # row cycle time
CDLR                                    3 # switching from write to read (changes tWTR)
WR                                     10 # last data-in to row precharge
CL                                     12 # CAS latency
WL                                      2 # Write latency
nbkgrp                                  4 # number of bank groups
CCDL                                    2 # column to column delay between accesses to different bank groups
RTPL                                    3 # read to precharge delay between accesses to different bank groups
Total number of memory sub partition = 64
addr_dec_mask[CHIP]  = 0000000000001f00 	high:13 low:8
addr_dec_mask[BK]    = 00000000000e2000 	high:20 low:13
addr_dec_mask[ROW]   = 00000001fff00000 	high:33 low:20
addr_dec_mask[COL]   = 000000000001c0ff 	high:17 low:0
addr_dec_mask[BURST] = 000000000000001f 	high:5 low:0
sub_partition_id_mask = 0000000000002000
GPGPU-Sim uArch: clock freqs: 1132000000.000000:1132000000.000000:1132000000.000000:850000000.000000
GPGPU-Sim uArch: clock periods: 0.00000000088339222615:0.00000000088339222615:0.00000000088339222615:0.00000000117647058824
*** Initializing Memory Statistics ***
GPGPU-Sim uArch: performance model initialization complete.
self exe links to: /home/pli11/Videos/parboil_benchmark/parboil/benchmarks/stencil/build/nvm_default/stencil
self exe links to: /home/pli11/Videos/parboil_benchmark/parboil/benchmarks/stencil/build/nvm_default/stencil
10.1
GPGPU-Sim PTX: __cudaRegisterFatBinary, fat_cubin_handle = 1, filename=default
self exe links to: /home/pli11/Videos/parboil_benchmark/parboil/benchmarks/stencil/build/nvm_default/stencil
Running md5sum using "md5sum /home/pli11/Videos/parboil_benchmark/parboil/benchmarks/stencil/build/nvm_default/stencil "
self exe links to: /home/pli11/Videos/parboil_benchmark/parboil/benchmarks/stencil/build/nvm_default/stencil
Extracting specific PTX file named stencil.1.sm_70.ptx 
GPGPU-Sim PTX: __cudaRegisterFunction _Z17naive_kernel_nvm5ffPfS_iii : hostFun 0x0x403527, fat_cubin_handle = 1
GPGPU-Sim PTX: Parsing stencil.1.sm_70.ptx
GPGPU-Sim PTX: allocating global region for "NVM_log" from 0x100 to 0x4000100 (global memory space)
GPGPU-Sim PTX: allocating global region for "NVM_flag" from 0x4000100 to 0x4400100 (global memory space)
GPGPU-Sim PTX: instruction assembly for function '_Z12naive_kernelffPfS_iii'...   done.
GPGPU-Sim PTX: instruction assembly for function '_Z17naive_kernel_nvmbffPfS_iii'...   done.
GPGPU-Sim PTX: instruction assembly for function '_Z17naive_kernel_nvmoffPfS_iii'...   done.
GPGPU-Sim PTX: instruction assembly for function '_Z17naive_kernel_nvmuffPfS_iii'...   done.
GPGPU-Sim PTX: instruction assembly for function '_Z17naive_kernel_nvm1ffPfS_iii'...   done.
GPGPU-Sim PTX: instruction assembly for function '_Z17naive_kernel_nvm2ffPfS_iii'...   done.
GPGPU-Sim PTX: instruction assembly for function '_Z17naive_kernel_nvmgffPfS_iii'...   done.
GPGPU-Sim PTX: instruction assembly for function '_Z17naive_kernel_nvm3ffPfS_iii'...   done.
GPGPU-Sim PTX: instruction assembly for function '_Z17naive_kernel_nvm4ffPfS_iii'...   done.
GPGPU-Sim PTX: instruction assembly for function '_Z17naive_kernel_nvmiffPfS_iii'...   done.
GPGPU-Sim PTX: instruction assembly for function '_Z17naive_kernel_nvm6ffPfS_iii'...   done.
GPGPU-Sim PTX: instruction assembly for function '_Z17naive_kernel_nvm5ffPfS_iii'...   done.
GPGPU-Sim PTX: finished parsing EMBEDDED .ptx file stencil.1.sm_70.ptx
GPGPU-Sim PTX: loading globals with explicit initializers... 
GPGPU-Sim PTX: finished loading globals (0 bytes total).
GPGPU-Sim PTX: loading constants with explicit initializers...  done.
GPGPU-Sim PTX: Loading PTXInfo from stencil.1.sm_70.ptx
GPGPU-Sim PTX: Kernel '_Z17naive_kernel_nvm5ffPfS_iii' : regs=21, lmem=0, smem=0, cmem=388
GPGPU-Sim PTX: Kernel '_Z17naive_kernel_nvm6ffPfS_iii' : regs=21, lmem=0, smem=0, cmem=388
GPGPU-Sim PTX: Kernel '_Z17naive_kernel_nvmiffPfS_iii' : regs=21, lmem=0, smem=0, cmem=388
GPGPU-Sim PTX: Kernel '_Z17naive_kernel_nvm4ffPfS_iii' : regs=23, lmem=0, smem=0, cmem=388
GPGPU-Sim PTX: Kernel '_Z17naive_kernel_nvm3ffPfS_iii' : regs=23, lmem=0, smem=0, cmem=388
GPGPU-Sim PTX: Kernel '_Z17naive_kernel_nvmgffPfS_iii' : regs=23, lmem=0, smem=0, cmem=388
GPGPU-Sim PTX: Kernel '_Z17naive_kernel_nvm2ffPfS_iii' : regs=22, lmem=0, smem=0, cmem=388
GPGPU-Sim PTX: Kernel '_Z17naive_kernel_nvm1ffPfS_iii' : regs=22, lmem=0, smem=0, cmem=388
GPGPU-Sim PTX: Kernel '_Z17naive_kernel_nvmuffPfS_iii' : regs=20, lmem=0, smem=0, cmem=388
GPGPU-Sim PTX: Kernel '_Z17naive_kernel_nvmoffPfS_iii' : regs=20, lmem=0, smem=0, cmem=388
GPGPU-Sim PTX: Kernel '_Z17naive_kernel_nvmbffPfS_iii' : regs=20, lmem=0, smem=0, cmem=388
GPGPU-Sim PTX: Kernel '_Z12naive_kernelffPfS_iii' : regs=20, lmem=0, smem=0, cmem=388
GPGPU-Sim PTX: __cudaRegisterFunction _Z17naive_kernel_nvm6ffPfS_iii : hostFun 0x0x40332e, fat_cubin_handle = 1
GPGPU-Sim PTX: __cudaRegisterFunction _Z17naive_kernel_nvmiffPfS_iii : hostFun 0x0x403135, fat_cubin_handle = 1
GPGPU-Sim PTX: __cudaRegisterFunction _Z17naive_kernel_nvm4ffPfS_iii : hostFun 0x0x402f3c, fat_cubin_handle = 1
GPGPU-Sim PTX: __cudaRegisterFunction _Z17naive_kernel_nvm3ffPfS_iii : hostFun 0x0x402d43, fat_cubin_handle = 1
GPGPU-Sim PTX: __cudaRegisterFunction _Z17naive_kernel_nvmgffPfS_iii : hostFun 0x0x402b4a, fat_cubin_handle = 1
GPGPU-Sim PTX: __cudaRegisterFunction _Z17naive_kernel_nvm2ffPfS_iii : hostFun 0x0x402951, fat_cubin_handle = 1
GPGPU-Sim PTX: __cudaRegisterFunction _Z17naive_kernel_nvm1ffPfS_iii : hostFun 0x0x402758, fat_cubin_handle = 1
GPGPU-Sim PTX: __cudaRegisterFunction _Z17naive_kernel_nvmuffPfS_iii : hostFun 0x0x40255f, fat_cubin_handle = 1
GPGPU-Sim PTX: __cudaRegisterFunction _Z17naive_kernel_nvmoffPfS_iii : hostFun 0x0x402366, fat_cubin_handle = 1
GPGPU-Sim PTX: __cudaRegisterFunction _Z17naive_kernel_nvmbffPfS_iii : hostFun 0x0x40216d, fat_cubin_handle = 1
GPGPU-Sim PTX: __cudaRegisterFunction _Z12naive_kernelffPfS_iii : hostFun 0x0x401f74, fat_cubin_handle = 1
GPGPU-Sim PTX: __cudaRegisterVar: hostVar = 0x6091c0; deviceAddress = NVM_log; deviceName = NVM_log
GPGPU-Sim PTX: __cudaRegisterVar: Registering const memory space of 67108864 bytes
GPGPU-Sim PTX registering global NVM_log hostVar to name mapping
GPGPU-Sim PTX: __cudaRegisterVar: hostVar = 0x46091c0; deviceAddress = NVM_flag; deviceName = NVM_flag
GPGPU-Sim PTX: __cudaRegisterVar: Registering const memory space of 4194304 bytes
GPGPU-Sim PTX registering global NVM_flag hostVar to name mapping
CUDA accelerated 7 points stencil codes****
Original version by Li-Wen Chang <lchang20@illinois.edu> and I-Jui Sung<sung10@illinois.edu>
This version maintained by Chris Rodrigues  ***********
GPGPU-Sim: synchronize waiting for inactive GPU simulation
GPGPU-Sim API: Stream Manager State
GPGPU-Sim: detected inactive GPU simulation thread
event update
GPGPU-Sim: synchronize waiting for inactive GPU simulation
GPGPU-Sim API: Stream Manager State
GPGPU-Sim: detected inactive GPU simulation thread
GPGPU-Sim PTX: Setting up arguments for 4 bytes starting at 0x7ffe13010e4c..
GPGPU-Sim PTX: Setting up arguments for 4 bytes starting at 0x7ffe13010e48..
GPGPU-Sim PTX: Setting up arguments for 8 bytes starting at 0x7ffe13010e40..
GPGPU-Sim PTX: Setting up arguments for 8 bytes starting at 0x7ffe13010e38..
GPGPU-Sim PTX: Setting up arguments for 4 bytes starting at 0x7ffe13010e34..
GPGPU-Sim PTX: Setting up arguments for 4 bytes starting at 0x7ffe13010e30..
GPGPU-Sim PTX: Setting up arguments for 4 bytes starting at 0x7ffe13010e2c..

GPGPU-Sim PTX: cudaLaunch for 0x0x40332e (mode=performance simulation) on stream 0
GPGPU-Sim PTX: finding reconvergence points for '_Z17naive_kernel_nvm6ffPfS_iii'...
GPGPU-Sim PTX: Finding dominators for '_Z17naive_kernel_nvm6ffPfS_iii'...
GPGPU-Sim PTX: Finding immediate dominators for '_Z17naive_kernel_nvm6ffPfS_iii'...
GPGPU-Sim PTX: Finding postdominators for '_Z17naive_kernel_nvm6ffPfS_iii'...
GPGPU-Sim PTX: Finding immediate postdominators for '_Z17naive_kernel_nvm6ffPfS_iii'...
GPGPU-Sim PTX: pre-decoding instructions for '_Z17naive_kernel_nvm6ffPfS_iii'...
GPGPU-Sim PTX: reconvergence points for _Z17naive_kernel_nvm6ffPfS_iii...
GPGPU-Sim PTX:  1 (potential) branch divergence @  PC=0x1980 (stencil.1.sm_70.ptx:1210) @%p2 bra BB10_2;
GPGPU-Sim PTX:    immediate post dominator      @  PC=0x1a18 (stencil.1.sm_70.ptx:1242) setp.lt.s32%p3, %r3, 1;
GPGPU-Sim PTX:  2 (potential) branch divergence @  PC=0x1a20 (stencil.1.sm_70.ptx:1243) @%p3 bra BB10_4;
GPGPU-Sim PTX:    immediate post dominator      @  PC=0x1b98 (stencil.1.sm_70.ptx:1295) setp.eq.s32%p1, %r4, %r5;
GPGPU-Sim PTX:  3 (potential) branch divergence @  PC=0x1bd0 (stencil.1.sm_70.ptx:1308) @!%p1 bra BB10_6;
GPGPU-Sim PTX:    immediate post dominator      @  PC=0x1c60 (stencil.1.sm_70.ptx:1340) ret;
GPGPU-Sim PTX:  4 (potential) branch divergence @  PC=0x1bd8 (stencil.1.sm_70.ptx:1309) bra.uni BB10_5;
GPGPU-Sim PTX:    immediate post dominator      @  PC=0x1be0 (stencil.1.sm_70.ptx:1312) mov.u32 %r38, %nctaid.x;
GPGPU-Sim PTX: ... end of reconvergence points for _Z17naive_kernel_nvm6ffPfS_iii
GPGPU-Sim PTX: ... done pre-decoding instructions for '_Z17naive_kernel_nvm6ffPfS_iii'.
GPGPU-Sim PTX: pushing kernel '_Z17naive_kernel_nvm6ffPfS_iii' to stream 0, gridDim= (510,62,1) blockDim = (511,1,1) 
GPGPU-Sim uArch: Shader 0 bind to kernel 1 '_Z17naive_kernel_nvm6ffPfS_iii'
GPGPU-Sim uArch: CTA/core = 4, limited by: threads
GPGPU-Sim: Reconfigure L1 cache to 128KB
GPGPU-Sim uArch: Shader 1 bind to kernel 1 '_Z17naive_kernel_nvm6ffPfS_iii'
GPGPU-Sim uArch: Shader 2 bind to kernel 1 '_Z17naive_kernel_nvm6ffPfS_iii'
GPGPU-Sim uArch: Shader 3 bind to kernel 1 '_Z17naive_kernel_nvm6ffPfS_iii'
GPGPU-Sim uArch: Shader 4 bind to kernel 1 '_Z17naive_kernel_nvm6ffPfS_iii'
GPGPU-Sim uArch: Shader 5 bind to kernel 1 '_Z17naive_kernel_nvm6ffPfS_iii'
GPGPU-Sim uArch: Shader 6 bind to kernel 1 '_Z17naive_kernel_nvm6ffPfS_iii'
GPGPU-Sim uArch: Shader 7 bind to kernel 1 '_Z17naive_kernel_nvm6ffPfS_iii'
GPGPU-Sim uArch: Shader 8 bind to kernel 1 '_Z17naive_kernel_nvm6ffPfS_iii'
GPGPU-Sim uArch: Shader 9 bind to kernel 1 '_Z17naive_kernel_nvm6ffPfS_iii'
GPGPU-Sim uArch: Shader 10 bind to kernel 1 '_Z17naive_kernel_nvm6ffPfS_iii'
GPGPU-Sim uArch: Shader 11 bind to kernel 1 '_Z17naive_kernel_nvm6ffPfS_iii'
GPGPU-Sim uArch: Shader 12 bind to kernel 1 '_Z17naive_kernel_nvm6ffPfS_iii'
GPGPU-Sim uArch: Shader 13 bind to kernel 1 '_Z17naive_kernel_nvm6ffPfS_iii'
GPGPU-Sim uArch: Shader 14 bind to kernel 1 '_Z17naive_kernel_nvm6ffPfS_iii'
GPGPU-Sim uArch: Shader 15 bind to kernel 1 '_Z17naive_kernel_nvm6ffPfS_iii'
GPGPU-Sim uArch: Shader 16 bind to kernel 1 '_Z17naive_kernel_nvm6ffPfS_iii'
GPGPU-Sim uArch: Shader 17 bind to kernel 1 '_Z17naive_kernel_nvm6ffPfS_iii'
GPGPU-Sim uArch: Shader 18 bind to kernel 1 '_Z17naive_kernel_nvm6ffPfS_iii'
GPGPU-Sim uArch: Shader 19 bind to kernel 1 '_Z17naive_kernel_nvm6ffPfS_iii'
GPGPU-Sim uArch: Shader 20 bind to kernel 1 '_Z17naive_kernel_nvm6ffPfS_iii'
GPGPU-Sim uArch: Shader 21 bind to kernel 1 '_Z17naive_kernel_nvm6ffPfS_iii'
GPGPU-Sim uArch: Shader 22 bind to kernel 1 '_Z17naive_kernel_nvm6ffPfS_iii'
GPGPU-Sim uArch: Shader 23 bind to kernel 1 '_Z17naive_kernel_nvm6ffPfS_iii'
GPGPU-Sim uArch: Shader 24 bind to kernel 1 '_Z17naive_kernel_nvm6ffPfS_iii'
GPGPU-Sim uArch: Shader 25 bind to kernel 1 '_Z17naive_kernel_nvm6ffPfS_iii'
GPGPU-Sim uArch: Shader 26 bind to kernel 1 '_Z17naive_kernel_nvm6ffPfS_iii'
GPGPU-Sim uArch: Shader 27 bind to kernel 1 '_Z17naive_kernel_nvm6ffPfS_iii'
GPGPU-Sim uArch: Shader 28 bind to kernel 1 '_Z17naive_kernel_nvm6ffPfS_iii'
GPGPU-Sim uArch: Shader 29 bind to kernel 1 '_Z17naive_kernel_nvm6ffPfS_iii'
GPGPU-Sim uArch: Shader 30 bind to kernel 1 '_Z17naive_kernel_nvm6ffPfS_iii'
GPGPU-Sim uArch: Shader 31 bind to kernel 1 '_Z17naive_kernel_nvm6ffPfS_iii'
GPGPU-Sim uArch: Shader 32 bind to kernel 1 '_Z17naive_kernel_nvm6ffPfS_iii'
GPGPU-Sim uArch: Shader 33 bind to kernel 1 '_Z17naive_kernel_nvm6ffPfS_iii'
GPGPU-Sim uArch: Shader 34 bind to kernel 1 '_Z17naive_kernel_nvm6ffPfS_iii'
GPGPU-Sim uArch: Shader 35 bind to kernel 1 '_Z17naive_kernel_nvm6ffPfS_iii'
GPGPU-Sim uArch: Shader 36 bind to kernel 1 '_Z17naive_kernel_nvm6ffPfS_iii'
GPGPU-Sim uArch: Shader 37 bind to kernel 1 '_Z17naive_kernel_nvm6ffPfS_iii'
GPGPU-Sim uArch: Shader 38 bind to kernel 1 '_Z17naive_kernel_nvm6ffPfS_iii'
GPGPU-Sim uArch: Shader 39 bind to kernel 1 '_Z17naive_kernel_nvm6ffPfS_iii'
GPGPU-Sim uArch: Shader 40 bind to kernel 1 '_Z17naive_kernel_nvm6ffPfS_iii'
GPGPU-Sim uArch: Shader 41 bind to kernel 1 '_Z17naive_kernel_nvm6ffPfS_iii'
GPGPU-Sim uArch: Shader 42 bind to kernel 1 '_Z17naive_kernel_nvm6ffPfS_iii'
GPGPU-Sim uArch: Shader 43 bind to kernel 1 '_Z17naive_kernel_nvm6ffPfS_iii'
GPGPU-Sim uArch: Shader 44 bind to kernel 1 '_Z17naive_kernel_nvm6ffPfS_iii'
GPGPU-Sim uArch: Shader 45 bind to kernel 1 '_Z17naive_kernel_nvm6ffPfS_iii'
GPGPU-Sim uArch: Shader 46 bind to kernel 1 '_Z17naive_kernel_nvm6ffPfS_iii'
GPGPU-Sim uArch: Shader 47 bind to kernel 1 '_Z17naive_kernel_nvm6ffPfS_iii'
GPGPU-Sim uArch: Shader 48 bind to kernel 1 '_Z17naive_kernel_nvm6ffPfS_iii'
GPGPU-Sim uArch: Shader 49 bind to kernel 1 '_Z17naive_kernel_nvm6ffPfS_iii'
GPGPU-Sim uArch: Shader 50 bind to kernel 1 '_Z17naive_kernel_nvm6ffPfS_iii'
GPGPU-Sim uArch: Shader 51 bind to kernel 1 '_Z17naive_kernel_nvm6ffPfS_iii'
GPGPU-Sim uArch: Shader 52 bind to kernel 1 '_Z17naive_kernel_nvm6ffPfS_iii'
GPGPU-Sim uArch: Shader 53 bind to kernel 1 '_Z17naive_kernel_nvm6ffPfS_iii'
GPGPU-Sim uArch: Shader 54 bind to kernel 1 '_Z17naive_kernel_nvm6ffPfS_iii'
GPGPU-Sim uArch: Shader 55 bind to kernel 1 '_Z17naive_kernel_nvm6ffPfS_iii'
GPGPU-Sim uArch: Shader 56 bind to kernel 1 '_Z17naive_kernel_nvm6ffPfS_iii'
GPGPU-Sim uArch: Shader 57 bind to kernel 1 '_Z17naive_kernel_nvm6ffPfS_iii'
GPGPU-Sim uArch: Shader 58 bind to kernel 1 '_Z17naive_kernel_nvm6ffPfS_iii'
GPGPU-Sim uArch: Shader 59 bind to kernel 1 '_Z17naive_kernel_nvm6ffPfS_iii'
GPGPU-Sim uArch: Shader 60 bind to kernel 1 '_Z17naive_kernel_nvm6ffPfS_iii'
GPGPU-Sim uArch: Shader 61 bind to kernel 1 '_Z17naive_kernel_nvm6ffPfS_iii'
GPGPU-Sim uArch: Shader 62 bind to kernel 1 '_Z17naive_kernel_nvm6ffPfS_iii'
GPGPU-Sim uArch: Shader 63 bind to kernel 1 '_Z17naive_kernel_nvm6ffPfS_iii'
GPGPU-Sim uArch: Shader 64 bind to kernel 1 '_Z17naive_kernel_nvm6ffPfS_iii'
GPGPU-Sim uArch: Shader 65 bind to kernel 1 '_Z17naive_kernel_nvm6ffPfS_iii'
GPGPU-Sim uArch: Shader 66 bind to kernel 1 '_Z17naive_kernel_nvm6ffPfS_iii'
GPGPU-Sim uArch: Shader 67 bind to kernel 1 '_Z17naive_kernel_nvm6ffPfS_iii'
GPGPU-Sim uArch: Shader 68 bind to kernel 1 '_Z17naive_kernel_nvm6ffPfS_iii'
GPGPU-Sim uArch: Shader 69 bind to kernel 1 '_Z17naive_kernel_nvm6ffPfS_iii'
GPGPU-Sim uArch: Shader 70 bind to kernel 1 '_Z17naive_kernel_nvm6ffPfS_iii'
GPGPU-Sim uArch: Shader 71 bind to kernel 1 '_Z17naive_kernel_nvm6ffPfS_iii'
GPGPU-Sim uArch: Shader 72 bind to kernel 1 '_Z17naive_kernel_nvm6ffPfS_iii'
GPGPU-Sim uArch: Shader 73 bind to kernel 1 '_Z17naive_kernel_nvm6ffPfS_iii'
GPGPU-Sim uArch: Shader 74 bind to kernel 1 '_Z17naive_kernel_nvm6ffPfS_iii'
GPGPU-Sim uArch: Shader 75 bind to kernel 1 '_Z17naive_kernel_nvm6ffPfS_iii'
GPGPU-Sim uArch: Shader 76 bind to kernel 1 '_Z17naive_kernel_nvm6ffPfS_iii'
GPGPU-Sim uArch: Shader 77 bind to kernel 1 '_Z17naive_kernel_nvm6ffPfS_iii'
GPGPU-Sim uArch: Shader 78 bind to kernel 1 '_Z17naive_kernel_nvm6ffPfS_iii'
GPGPU-Sim uArch: Shader 79 bind to kernel 1 '_Z17naive_kernel_nvm6ffPfS_iii'
kernel_name = _Z17naive_kernel_nvm6ffPfS_iii 
kernel_launch_uid = 1 
gpu_sim_cycle = 211268
gpu_sim_insn = 90002256
gpu_ipc =     426.0099
gpu_tot_sim_cycle = 211268
gpu_tot_sim_insn = 90002256
gpu_tot_ipc =     426.0099
gpu_tot_issued_cta = 2368
gpu_occupancy = 84.9298% 
gpu_tot_occupancy = 84.9298% 
max_total_param_size = 0
gpu_stall_dramfull = 7758463
gpu_stall_icnt2sh    = 0
partiton_level_parallism =      17.6749
partiton_level_parallism_total  =      17.6749
partiton_level_parallism_util =      18.1506
partiton_level_parallism_util_total  =      18.1506
L2_BW  =     636.8096 GB/Sec
L2_BW_total  =     636.8096 GB/Sec
gpu_total_sim_rate=67115
############## bottleneck_stats #############
cycles: core 211268, icnt 211268, l2 211268, dram 158637
gpu_ipc	426.010
gpu_tot_issued_cta = 2368, average cycles = 89
n_dram_writes	 0, n_dram_reads	 0
n_GLOBAL_ACC_R	 215538 
n_LOCAL_ACC_R	 0 
n_CONST_ACC_R	 0 
n_TEXTURE_ACC_R	 0 
n_GLOBAL_ACC_W	 0 
n_LOCAL_ACC_W	 0 
n_L1_WRBK_ACC	 0 
n_L2_WRBK_ACC	 34192 
n_L1_WR_ALLOC_R	 0 
n_L2_WR_ALLOC_R	 0 

n_sm	 80, n_schedulers	 4
scheduler util	0.043	80
L1D data util	0.256	80	0.281	7
L1D tag util	0.076	80	0.084	47
L2 data util	0.118	64	0.122	58
L2 tag util	0.087	64	0.090	40
n_l2_access	 1177645
icnt s2m util	0.000	0	0.000	40	flits per packet: -nan
icnt m2s util	0.000	0	0.000	40	flits per packet: -nan
sum=0
n_mem	 32
dram util	0.065	32	0.067	4

latency_l1_hit:	3463559, num_l1_reqs:	172487
L1 hit latency:	20
latency_l2_hit:	1022172661, num_l2_reqs:	682289
L2 hit latency:	1498
latency_dram:	989170430, num_dram_reqs:	494643
DRAM latency:	1999

n_reg	65536, n_smem	98304, n_thread	2048, n_tb	32
reg file	0.750
smem size	0.000
thread slot	1.000
TB slot    	0.125
L1I tag util	0.092	80	0.101	18

n_mem_pipe	1, n_sp_pipe	4, n_sfu_pipe	4
mem pipe util	0.041	80	0.045	18
sp pipe util	0.009	80	0.010	7
sfu pipe util	0.000	0	0.000	7
ldst mem cycle	0.161	80	0.177	7

smem port	0.000	0

n_reg_bank	16
reg port	0.023	16	0.027	3
L1D tag util	0.076	80	0.084	47
L1D fill util	0.052	80	0.057	7
n_l1d_mshr	4096
L1D mshr util	0.021	80
n_l1d_missq	16
L1D missq util	0.013	80
L1D hit rate	0.134
L1D miss rate	0.841
L1D rsfail rate	0.025
L2 tag util	0.087	64	0.090	40
L2 fill util	0.016	64	0.016	3
n_l2_mshr	192
n_l2_missq	32
L2 mshr util	0.075	64	0.079	29
L2 missq util	0.001	64	0.001	36
L2 hit rate	0.579
L2 miss rate	0.421
L2 rsfail rate	0.000

dram activity	0.166	32	0.190	24

load trans eff	0.934
load trans sz	32.000
load_useful_bytes 33141308, load_transaction_bytes 35476096, icnt_m2s_bytes 0
n_gmem_load_insns 259918, n_gmem_load_accesses 1108628
n_smem_access_insn 0, n_smem_accesses 0

tmp_counter/12	0.277

run 0.003, fetch 0.000, sync 0.588, control 0.000, data 0.404, struct 0.004
############ end_bottleneck_stats #############

========= Core cache stats =========
L1I_cache:
	L1I_total_cache_accesses = 0
	L1I_total_cache_misses = 0
	L1I_total_cache_pending_hits = 0
	L1I_total_cache_reservation_fails = 0
L1D_cache:
	L1D_cache_core[0]: Access = 14936, Miss = 12990, Miss_rate = 0.870, Pending_hits = 0, Reservation_fails = 0
	L1D_cache_core[1]: Access = 14596, Miss = 12655, Miss_rate = 0.867, Pending_hits = 0, Reservation_fails = 1465
	L1D_cache_core[2]: Access = 15199, Miss = 13175, Miss_rate = 0.867, Pending_hits = 0, Reservation_fails = 435
	L1D_cache_core[3]: Access = 16310, Miss = 13996, Miss_rate = 0.858, Pending_hits = 0, Reservation_fails = 626
	L1D_cache_core[4]: Access = 15886, Miss = 13686, Miss_rate = 0.862, Pending_hits = 0, Reservation_fails = 66
	L1D_cache_core[5]: Access = 14857, Miss = 12926, Miss_rate = 0.870, Pending_hits = 0, Reservation_fails = 154
	L1D_cache_core[6]: Access = 15685, Miss = 13468, Miss_rate = 0.859, Pending_hits = 0, Reservation_fails = 0
	L1D_cache_core[7]: Access = 17237, Miss = 14897, Miss_rate = 0.864, Pending_hits = 0, Reservation_fails = 0
	L1D_cache_core[8]: Access = 16940, Miss = 14655, Miss_rate = 0.865, Pending_hits = 0, Reservation_fails = 272
	L1D_cache_core[9]: Access = 16628, Miss = 14375, Miss_rate = 0.865, Pending_hits = 0, Reservation_fails = 643
	L1D_cache_core[10]: Access = 16218, Miss = 14039, Miss_rate = 0.866, Pending_hits = 0, Reservation_fails = 296
	L1D_cache_core[11]: Access = 16377, Miss = 14206, Miss_rate = 0.867, Pending_hits = 0, Reservation_fails = 451
	L1D_cache_core[12]: Access = 15230, Miss = 13180, Miss_rate = 0.865, Pending_hits = 0, Reservation_fails = 507
	L1D_cache_core[13]: Access = 14810, Miss = 12614, Miss_rate = 0.852, Pending_hits = 0, Reservation_fails = 267
	L1D_cache_core[14]: Access = 15819, Miss = 13680, Miss_rate = 0.865, Pending_hits = 0, Reservation_fails = 0
	L1D_cache_core[15]: Access = 16864, Miss = 14608, Miss_rate = 0.866, Pending_hits = 0, Reservation_fails = 827
	L1D_cache_core[16]: Access = 15896, Miss = 13742, Miss_rate = 0.864, Pending_hits = 0, Reservation_fails = 206
	L1D_cache_core[17]: Access = 16561, Miss = 14293, Miss_rate = 0.863, Pending_hits = 0, Reservation_fails = 211
	L1D_cache_core[18]: Access = 17144, Miss = 14805, Miss_rate = 0.864, Pending_hits = 0, Reservation_fails = 0
	L1D_cache_core[19]: Access = 15230, Miss = 13120, Miss_rate = 0.861, Pending_hits = 0, Reservation_fails = 671
	L1D_cache_core[20]: Access = 15522, Miss = 13360, Miss_rate = 0.861, Pending_hits = 0, Reservation_fails = 906
	L1D_cache_core[21]: Access = 17167, Miss = 14846, Miss_rate = 0.865, Pending_hits = 0, Reservation_fails = 157
	L1D_cache_core[22]: Access = 15139, Miss = 13095, Miss_rate = 0.865, Pending_hits = 0, Reservation_fails = 1102
	L1D_cache_core[23]: Access = 16810, Miss = 14422, Miss_rate = 0.858, Pending_hits = 0, Reservation_fails = 0
	L1D_cache_core[24]: Access = 15225, Miss = 13068, Miss_rate = 0.858, Pending_hits = 0, Reservation_fails = 36
	L1D_cache_core[25]: Access = 16419, Miss = 14125, Miss_rate = 0.860, Pending_hits = 0, Reservation_fails = 180
	L1D_cache_core[26]: Access = 15418, Miss = 13352, Miss_rate = 0.866, Pending_hits = 0, Reservation_fails = 370
	L1D_cache_core[27]: Access = 14578, Miss = 12670, Miss_rate = 0.869, Pending_hits = 0, Reservation_fails = 442
	L1D_cache_core[28]: Access = 14885, Miss = 12879, Miss_rate = 0.865, Pending_hits = 0, Reservation_fails = 67
	L1D_cache_core[29]: Access = 14937, Miss = 12911, Miss_rate = 0.864, Pending_hits = 0, Reservation_fails = 372
	L1D_cache_core[30]: Access = 14830, Miss = 13008, Miss_rate = 0.877, Pending_hits = 0, Reservation_fails = 500
	L1D_cache_core[31]: Access = 16303, Miss = 14052, Miss_rate = 0.862, Pending_hits = 0, Reservation_fails = 200
	L1D_cache_core[32]: Access = 16016, Miss = 13792, Miss_rate = 0.861, Pending_hits = 0, Reservation_fails = 411
	L1D_cache_core[33]: Access = 15840, Miss = 13537, Miss_rate = 0.855, Pending_hits = 0, Reservation_fails = 501
	L1D_cache_core[34]: Access = 16232, Miss = 13943, Miss_rate = 0.859, Pending_hits = 0, Reservation_fails = 122
	L1D_cache_core[35]: Access = 15859, Miss = 13615, Miss_rate = 0.859, Pending_hits = 0, Reservation_fails = 295
	L1D_cache_core[36]: Access = 15194, Miss = 13048, Miss_rate = 0.859, Pending_hits = 0, Reservation_fails = 673
	L1D_cache_core[37]: Access = 15213, Miss = 13039, Miss_rate = 0.857, Pending_hits = 0, Reservation_fails = 410
	L1D_cache_core[38]: Access = 16081, Miss = 13868, Miss_rate = 0.862, Pending_hits = 0, Reservation_fails = 135
	L1D_cache_core[39]: Access = 16402, Miss = 14098, Miss_rate = 0.860, Pending_hits = 0, Reservation_fails = 0
	L1D_cache_core[40]: Access = 16361, Miss = 14094, Miss_rate = 0.861, Pending_hits = 0, Reservation_fails = 656
	L1D_cache_core[41]: Access = 15065, Miss = 12956, Miss_rate = 0.860, Pending_hits = 0, Reservation_fails = 95
	L1D_cache_core[42]: Access = 16184, Miss = 13953, Miss_rate = 0.862, Pending_hits = 0, Reservation_fails = 0
	L1D_cache_core[43]: Access = 16707, Miss = 14350, Miss_rate = 0.859, Pending_hits = 0, Reservation_fails = 0
	L1D_cache_core[44]: Access = 15643, Miss = 13494, Miss_rate = 0.863, Pending_hits = 0, Reservation_fails = 106
	L1D_cache_core[45]: Access = 15129, Miss = 13066, Miss_rate = 0.864, Pending_hits = 0, Reservation_fails = 297
	L1D_cache_core[46]: Access = 15381, Miss = 13228, Miss_rate = 0.860, Pending_hits = 0, Reservation_fails = 879
	L1D_cache_core[47]: Access = 16415, Miss = 14089, Miss_rate = 0.858, Pending_hits = 0, Reservation_fails = 1310
	L1D_cache_core[48]: Access = 15303, Miss = 13229, Miss_rate = 0.864, Pending_hits = 0, Reservation_fails = 1287
	L1D_cache_core[49]: Access = 14986, Miss = 12926, Miss_rate = 0.863, Pending_hits = 0, Reservation_fails = 332
	L1D_cache_core[50]: Access = 15930, Miss = 13619, Miss_rate = 0.855, Pending_hits = 0, Reservation_fails = 940
	L1D_cache_core[51]: Access = 15002, Miss = 12974, Miss_rate = 0.865, Pending_hits = 0, Reservation_fails = 568
	L1D_cache_core[52]: Access = 14989, Miss = 13028, Miss_rate = 0.869, Pending_hits = 0, Reservation_fails = 0
	L1D_cache_core[53]: Access = 14935, Miss = 12971, Miss_rate = 0.868, Pending_hits = 0, Reservation_fails = 624
	L1D_cache_core[54]: Access = 15112, Miss = 13189, Miss_rate = 0.873, Pending_hits = 0, Reservation_fails = 744
	L1D_cache_core[55]: Access = 15650, Miss = 13479, Miss_rate = 0.861, Pending_hits = 0, Reservation_fails = 0
	L1D_cache_core[56]: Access = 15488, Miss = 13306, Miss_rate = 0.859, Pending_hits = 0, Reservation_fails = 598
	L1D_cache_core[57]: Access = 14559, Miss = 12675, Miss_rate = 0.871, Pending_hits = 0, Reservation_fails = 650
	L1D_cache_core[58]: Access = 15643, Miss = 13496, Miss_rate = 0.863, Pending_hits = 0, Reservation_fails = 0
	L1D_cache_core[59]: Access = 14535, Miss = 12792, Miss_rate = 0.880, Pending_hits = 0, Reservation_fails = 1253
	L1D_cache_core[60]: Access = 15102, Miss = 13063, Miss_rate = 0.865, Pending_hits = 0, Reservation_fails = 1848
	L1D_cache_core[61]: Access = 15143, Miss = 12959, Miss_rate = 0.856, Pending_hits = 0, Reservation_fails = 80
	L1D_cache_core[62]: Access = 15770, Miss = 13600, Miss_rate = 0.862, Pending_hits = 0, Reservation_fails = 67
	L1D_cache_core[63]: Access = 15210, Miss = 12985, Miss_rate = 0.854, Pending_hits = 0, Reservation_fails = 477
	L1D_cache_core[64]: Access = 16083, Miss = 13872, Miss_rate = 0.863, Pending_hits = 0, Reservation_fails = 0
	L1D_cache_core[65]: Access = 16261, Miss = 13921, Miss_rate = 0.856, Pending_hits = 0, Reservation_fails = 88
	L1D_cache_core[66]: Access = 15784, Miss = 13766, Miss_rate = 0.872, Pending_hits = 0, Reservation_fails = 1556
	L1D_cache_core[67]: Access = 16532, Miss = 14199, Miss_rate = 0.859, Pending_hits = 0, Reservation_fails = 0
	L1D_cache_core[68]: Access = 15892, Miss = 13806, Miss_rate = 0.869, Pending_hits = 0, Reservation_fails = 945
	L1D_cache_core[69]: Access = 15183, Miss = 13134, Miss_rate = 0.865, Pending_hits = 0, Reservation_fails = 0
	L1D_cache_core[70]: Access = 16062, Miss = 13892, Miss_rate = 0.865, Pending_hits = 0, Reservation_fails = 135
	L1D_cache_core[71]: Access = 16757, Miss = 14388, Miss_rate = 0.859, Pending_hits = 0, Reservation_fails = 338
	L1D_cache_core[72]: Access = 15669, Miss = 13385, Miss_rate = 0.854, Pending_hits = 0, Reservation_fails = 24
	L1D_cache_core[73]: Access = 14885, Miss = 12893, Miss_rate = 0.866, Pending_hits = 0, Reservation_fails = 558
	L1D_cache_core[74]: Access = 16766, Miss = 14431, Miss_rate = 0.861, Pending_hits = 0, Reservation_fails = 0
	L1D_cache_core[75]: Access = 15337, Miss = 13221, Miss_rate = 0.862, Pending_hits = 0, Reservation_fails = 1138
	L1D_cache_core[76]: Access = 16515, Miss = 14194, Miss_rate = 0.859, Pending_hits = 0, Reservation_fails = 1
	L1D_cache_core[77]: Access = 15225, Miss = 13120, Miss_rate = 0.862, Pending_hits = 0, Reservation_fails = 696
	L1D_cache_core[78]: Access = 15884, Miss = 13751, Miss_rate = 0.866, Pending_hits = 0, Reservation_fails = 299
	L1D_cache_core[79]: Access = 15765, Miss = 13516, Miss_rate = 0.857, Pending_hits = 0, Reservation_fails = 312
	L1D_total_cache_accesses = 1257335
	L1D_total_cache_misses = 1084848
	L1D_total_cache_miss_rate = 0.8628
	L1D_total_cache_pending_hits = 0
	L1D_total_cache_reservation_fails = 32877
	L1D_cache_data_port_util = 0.010
	L1D_cache_fill_port_util = 0.053
L1C_cache:
	L1C_total_cache_accesses = 0
	L1C_total_cache_misses = 0
	L1C_total_cache_pending_hits = 0
	L1C_total_cache_reservation_fails = 0
L1T_cache:
	L1T_total_cache_accesses = 0
	L1T_total_cache_misses = 0
	L1T_total_cache_pending_hits = 0
	L1T_total_cache_reservation_fails = 0

Total_core_cache_stats:
	Total_core_cache_stats_breakdown[GLOBAL_ACC_R][HIT] = 172487
	Total_core_cache_stats_breakdown[GLOBAL_ACC_R][HIT_RESERVED] = 0
	Total_core_cache_stats_breakdown[GLOBAL_ACC_R][MISS] = 801355
	Total_core_cache_stats_breakdown[GLOBAL_ACC_R][RESERVATION_FAIL] = 27711
	Total_core_cache_stats_breakdown[GLOBAL_ACC_R][SECTOR_MISS] = 134508
	Total_core_cache_stats_breakdown[LOCAL_ACC_R][HIT] = 0
	Total_core_cache_stats_breakdown[LOCAL_ACC_R][HIT_RESERVED] = 0
	Total_core_cache_stats_breakdown[LOCAL_ACC_R][MISS] = 0
	Total_core_cache_stats_breakdown[LOCAL_ACC_R][RESERVATION_FAIL] = 0
	Total_core_cache_stats_breakdown[LOCAL_ACC_R][SECTOR_MISS] = 0
	Total_core_cache_stats_breakdown[CONST_ACC_R][HIT] = 0
	Total_core_cache_stats_breakdown[CONST_ACC_R][HIT_RESERVED] = 0
	Total_core_cache_stats_breakdown[CONST_ACC_R][MISS] = 0
	Total_core_cache_stats_breakdown[CONST_ACC_R][RESERVATION_FAIL] = 0
	Total_core_cache_stats_breakdown[CONST_ACC_R][SECTOR_MISS] = 0
	Total_core_cache_stats_breakdown[TEXTURE_ACC_R][HIT] = 0
	Total_core_cache_stats_breakdown[TEXTURE_ACC_R][HIT_RESERVED] = 0
	Total_core_cache_stats_breakdown[TEXTURE_ACC_R][MISS] = 0
	Total_core_cache_stats_breakdown[TEXTURE_ACC_R][RESERVATION_FAIL] = 0
	Total_core_cache_stats_breakdown[TEXTURE_ACC_R][SECTOR_MISS] = 0
	Total_core_cache_stats_breakdown[GLOBAL_ACC_W][HIT] = 0
	Total_core_cache_stats_breakdown[GLOBAL_ACC_W][HIT_RESERVED] = 0
	Total_core_cache_stats_breakdown[GLOBAL_ACC_W][MISS] = 148985
	Total_core_cache_stats_breakdown[GLOBAL_ACC_W][RESERVATION_FAIL] = 5166
	Total_core_cache_stats_breakdown[GLOBAL_ACC_W][SECTOR_MISS] = 0
	Total_core_cache_stats_breakdown[LOCAL_ACC_W][HIT] = 0
	Total_core_cache_stats_breakdown[LOCAL_ACC_W][HIT_RESERVED] = 0
	Total_core_cache_stats_breakdown[LOCAL_ACC_W][MISS] = 0
	Total_core_cache_stats_breakdown[LOCAL_ACC_W][RESERVATION_FAIL] = 0
	Total_core_cache_stats_breakdown[LOCAL_ACC_W][SECTOR_MISS] = 0
	Total_core_cache_stats_breakdown[L1_WRBK_ACC][HIT] = 0
	Total_core_cache_stats_breakdown[L1_WRBK_ACC][HIT_RESERVED] = 0
	Total_core_cache_stats_breakdown[L1_WRBK_ACC][MISS] = 0
	Total_core_cache_stats_breakdown[L1_WRBK_ACC][RESERVATION_FAIL] = 0
	Total_core_cache_stats_breakdown[L1_WRBK_ACC][SECTOR_MISS] = 0
	Total_core_cache_stats_breakdown[L2_WRBK_ACC][HIT] = 0
	Total_core_cache_stats_breakdown[L2_WRBK_ACC][HIT_RESERVED] = 0
	Total_core_cache_stats_breakdown[L2_WRBK_ACC][MISS] = 0
	Total_core_cache_stats_breakdown[L2_WRBK_ACC][RESERVATION_FAIL] = 0
	Total_core_cache_stats_breakdown[L2_WRBK_ACC][SECTOR_MISS] = 0
	Total_core_cache_stats_breakdown[INST_ACC_R][HIT] = 0
	Total_core_cache_stats_breakdown[INST_ACC_R][HIT_RESERVED] = 0
	Total_core_cache_stats_breakdown[INST_ACC_R][MISS] = 0
	Total_core_cache_stats_breakdown[INST_ACC_R][RESERVATION_FAIL] = 0
	Total_core_cache_stats_breakdown[INST_ACC_R][SECTOR_MISS] = 0
	Total_core_cache_stats_breakdown[L1_WR_ALLOC_R][HIT] = 0
	Total_core_cache_stats_breakdown[L1_WR_ALLOC_R][HIT_RESERVED] = 0
	Total_core_cache_stats_breakdown[L1_WR_ALLOC_R][MISS] = 0
	Total_core_cache_stats_breakdown[L1_WR_ALLOC_R][RESERVATION_FAIL] = 0
	Total_core_cache_stats_breakdown[L1_WR_ALLOC_R][SECTOR_MISS] = 0
	Total_core_cache_stats_breakdown[L2_WR_ALLOC_R][HIT] = 0
	Total_core_cache_stats_breakdown[L2_WR_ALLOC_R][HIT_RESERVED] = 0
	Total_core_cache_stats_breakdown[L2_WR_ALLOC_R][MISS] = 0
	Total_core_cache_stats_breakdown[L2_WR_ALLOC_R][RESERVATION_FAIL] = 0
	Total_core_cache_stats_breakdown[L2_WR_ALLOC_R][SECTOR_MISS] = 0
	Total_core_cache_stats_breakdown[GLOBAL_ACC_R][TOTAL_ACCESS] = 1108350
	Total_core_cache_stats_breakdown[GLOBAL_ACC_W][TOTAL_ACCESS] = 148985

Total_core_cache_fail_stats:
	Total_core_cache_fail_stats_breakdown[GLOBAL_ACC_R][MISS_QUEUE_FULL] = 27711
	Total_core_cache_fail_stats_breakdown[GLOBAL_ACC_W][MISS_QUEUE_FULL] = 5166
Shader 0 warp_id issue ditsribution:
warp_id:
0, 1, 2, 3, 4, 5, 6, 7, 8, 9, 10, 11, 12, 13, 14, 15, 16, 17, 18, 19, 20, 21, 22, 23, 24, 25, 26, 27, 28, 29, 30, 31, 32, 33, 34, 35, 36, 37, 38, 39, 40, 41, 42, 43, 44, 45, 46, 47, 48, 49, 50, 51, 52, 53, 54, 55, 56, 57, 58, 59, 60, 61, 62, 63, 
distro:
765, 537, 537, 537, 537, 537, 537, 537, 537, 537, 537, 537, 532, 536, 536, 536, 735, 532, 523, 523, 518, 518, 518, 518, 532, 532, 518, 518, 512, 512, 517, 517, 764, 537, 537, 537, 537, 537, 537, 537, 536, 537, 536, 537, 537, 537, 536, 536, 740, 532, 523, 520, 520, 532, 523, 536, 536, 536, 520, 518, 518, 518, 518, 518, 
gpgpu_n_tot_thrd_icount = 93920640
gpgpu_n_tot_w_icount = 2935020
gpgpu_n_stall_shd_mem = 5261715
gpgpu_n_mem_read_local = 0
gpgpu_n_mem_write_local = 0
gpgpu_n_mem_read_global = 888180
gpgpu_n_mem_write_global = 2869835
gpgpu_n_mem_texture = 0
gpgpu_n_mem_const = 0
gpgpu_n_load_insn  = 8284086
gpgpu_n_store_insn = 3458924
gpgpu_n_shmem_insn = 0
gpgpu_n_sstarr_insn = 0
gpgpu_n_tex_insn = 0
gpgpu_n_const_mem_insn = 0
gpgpu_n_param_mem_insn = 7257222
gpgpu_n_shmem_bkconflict = 0
gpgpu_n_cache_bkconflict = 0
gpgpu_n_intrawarp_mshr_merge = 0
gpgpu_n_cmem_portconflict = 0
gpgpu_stall_shd_mem[c_mem][resource_stall] = 0
gpgpu_stall_shd_mem[s_mem][bk_conf] = 0
gpgpu_stall_shd_mem[gl_mem][resource_stall] = 967100
gpgpu_stall_shd_mem[gl_mem][coal_stall] = 2640073
gpgpu_stall_shd_mem[gl_mem][data_port_stall] = 0
gpu_reg_bank_conflict_stalls = 0
Warp Occupancy Distribution:
Stall:3824906	W0_Idle:9701054	W0_Scoreboard:49542491	W1:78289	W2:0	W3:0	W4:0	W5:0	W6:0	W7:0	W8:0	W9:0	W10:0	W11:0	W12:0	W13:0	W14:0	W15:0	W16:0	W17:0	W18:0	W19:0	W20:0	W21:0	W22:0	W23:0	W24:0	W25:0	W26:0	W27:0	W28:0	W29:0	W30:0	W31:282544	W32:2576156
single_issue_nums: WS0:790379	WS1:715762	WS2:714972	WS3:715876	
dual_issue_nums: WS0:0	WS1:0	WS2:0	WS3:0	
traffic_breakdown_coretomem[GLOBAL_ACC_R] = 7105440 {8:888180,}
traffic_breakdown_coretomem[GLOBAL_ACC_W] = 27726168 {8:2720851,40:148984,}
traffic_breakdown_memtocore[GLOBAL_ACC_R] = 35275840 {40:881896,}
traffic_breakdown_memtocore[GLOBAL_ACC_W] = 22656840 {8:2832105,}
maxmflatency = 7763 
max_icnt2mem_latency = 6457 
maxmrqlatency = 527 
max_icnt2sh_latency = 144 
averagemflatency = 2507 
avg_icnt2mem_latency = 1413 
avg_mrq_latency = 15 
avg_icnt2sh_latency = 2 
mrq_lat_table:104119 	49620 	9646 	11889 	24481 	30973 	17716 	1268 	15 	3 	0 	0 	0 	0 	0 	0 	0 	0 	0 	0 	0 	0 	0 	0 	0 	0 	0 	0 	0 	0 	0 	0 	
dq_lat_table:0 	0 	0 	0 	0 	0 	0 	0 	0 	0 	0 	0 	0 	0 	0 	0 	0 	0 	0 	0 	0 	0 	0 	0 	0 	0 	0 	0 	0 	0 	0 	0 	
mf_lat_table:0 	0 	0 	0 	0 	0 	0 	37856 	79203 	268985 	1067467 	1851470 	409001 	0 	0 	0 	0 	0 	0 	0 	0 	0 	0 	0 	0 	0 	0 	0 	0 	0 	0 	0 	
icnt2mem_lat_table:0 	53902 	20981 	16581 	76735 	54654 	80490 	166196 	384924 	738881 	1168677 	933663 	38467 	0 	0 	0 	0 	0 	0 	0 	0 	0 	0 	0 	
icnt2sh_lat_table:0 	3316917 	300823 	65995 	20280 	7631 	2310 	26 	0 	0 	0 	0 	0 	0 	0 	0 	0 	0 	0 	0 	0 	0 	0 	0 	
mf_lat_pw_table:0 	0 	0 	0 	0 	0 	0 	1 	0 	2 	92 	301 	15 	0 	0 	0 	0 	0 	0 	0 	0 	0 	0 	0 	0 	0 	0 	0 	0 	0 	0 	0 	
maximum concurrent accesses to same row:
dram[0]:        37        64        64        64        64        64        64        64        64        64        64        64        64        64        64        64 
dram[1]:        64        64        64        64        64        64        64        64        64        64        64        64        64        64        64        64 
dram[2]:        64        64        64        64        64        64        64        64        64        64        64        64        64        64        64        64 
dram[3]:        64        64        64        64        64        64        64        64        64        64        64        64        64        64        64        64 
dram[4]:        61        64        64        64        64        64        64        64        64        64        64        64        64        64        64        64 
dram[5]:        60        64        64        64        64        64        64        64        64        64        64        64        64        64        64        64 
dram[6]:        64        64        64        64        64        64        64        64        64        64        64        64        64        64        64        64 
dram[7]:        64        64        64        64        64        64        64        64        64        64        64        64        64        64        64        64 
dram[8]:        64        64        64        64        64        64        64        64        64        64        64        64        64        64        64        64 
dram[9]:        64        64        64        64        64        64        64        64        64        64        64        64        64        64        64        64 
dram[10]:        64        64        64        64        64        64        64        64        64        64        64        64        64        64        64        64 
dram[11]:       117        64        64        64        64        64        64        64        64        64        64        64        64        64        64        64 
dram[12]:        84        64        64        64        64        64        64        64        64        64        64        64        64        64        64        64 
dram[13]:        64        64        64        64        64        64        64        64        64        64        64        64        64        64        64        64 
dram[14]:        64        64        64        64        64        64        64        64        64        64        64        64        64        64        64        64 
dram[15]:        64        64        64        64        64        64        64        64        64        64        64        64        64        64        64        64 
dram[16]:        64        64        64        64        64        64        64        64        64        64        64        64        64        64        64        64 
dram[17]:        64        64        64        64        64        64        64        64        64        64        64        64        64        64        64        64 
dram[18]:        64        64        64        64        64        64        64        64        64        64        64        64        64        64        64        64 
dram[19]:        64        64        64        64        64        64        64        64        64        64        64        64        64        64        64        64 
dram[20]:        64        64        64        64        64        64        64        64        64        64        64        64        64        64        64        64 
dram[21]:        64        64        64        64        64        64        64        64        64        64        64        64        64        64        64        64 
dram[22]:        64        64        64        64        64        64        64        64        64        64        64        64        64        64        64        64 
dram[23]:        64        64        64        64        64        64        64        64        64        64        64        64        64        64        64        64 
dram[24]:        64        64        64        64        64        64        64        64        64        64        64        64        64        64        64        52 
dram[25]:        64        64        64        64        64        64        64        64        64        64        64        64        64        64        64        64 
dram[26]:        64        64        64        64        64        64        64        64        64        64        64        64        64        64        64        64 
dram[27]:        65        64        64        64        64        64        64        64        64        64        64        64        64        64        64        64 
dram[28]:        96        64        64        64        64        64        64        64        64        64        64        64        64        64        64        64 
dram[29]:        64        64        64        64        64        64        64        64        64        64        64        64        64        64        64        64 
dram[30]:        64        64        64        64        64        64        64        64        64        64        64        64        64        64        64        64 
dram[31]:        64        64        64        64        64        64        64        64        64        64        64        64        64        64        64        64 
maximum service time to same row:
dram[0]:     44618     41228     38808     40940     33416     45722     49113     43607     49570     46916     34102     36023     38953     38736     39803     53207 
dram[1]:     42975     47389     44726     47106     58343     43771     49960     53408     47549     51720     32735     36564     41111     41246     53851     54047 
dram[2]:     41893     46807     36659     48118     34618     38350     54997     52845     50669     48595     46026     38393     47996     45179     54282     53159 
dram[3]:     48798     48168     43714     46798     58587     41011     52847     52806     46273     45307     36945     40389     44096     40679     54282     40544 
dram[4]:     47628     47623     42644     41105     34330     44223     53144     53831     46641     47032     35071     36476     41539     47228     39883     40629 
dram[5]:     50050     54513     58187     42985     35547     47681     42852     42318     60788     47190     34719     36813     40739     40053     40471     40839 
dram[6]:     37121     39290     42206     58454     33346     33956     43798     40921     45415     43013     34615     46776     38881     39403     54888     52370 
dram[7]:     34444     55406     42991     39397     30784     35455     45553     41355     39605     44232     28286     40504     38664     39439     40189     41119 
dram[8]:     35040     55316     59798     58978     58083     41556     46747     48301     51844     48883     30095     37592     54477     39305     55462     40297 
dram[9]:     31208     45407     39385     46973     34719     44033     50219     55931     45392     48087     33904     36877     38528     44805     54517     40016 
dram[10]:     30556     48256     59049     51904     40781     46808     46103     53309     49226     50892     38334     37178     41079     39694     54940     40091 
dram[11]:     38335     43272     44818     53565     34788     39945     47478     48225     51193     50709     36686     46537     52799     53474     55010     55160 
dram[12]:     33710     46039     58794     58777     43229     46908     48714     45429     48847     49934     36043     39002     41005     38783     39920     41294 
dram[13]:     37256     39145     41920     36419     33927     45611     39855     46746     42840     42206     32098     36990     38905     39273     40370     54992 
dram[14]:     31190     43659     50886     40825     31492     32897     44925     44510     42422     40812     36924     37607     38925     52586     56423     41101 
dram[15]:     25966     36281     42426     44426     59244     47352     46811     40922     50392     41816     35730     37752     38775     42815     40153     41185 
dram[16]:     31306     37413     43070     37897     56306     42036     51266     40943     35810     48975     36482     37295     40077     53325     40164     52674 
dram[17]:     44467     45757     45790     58479     34848     46526     47076     47143     46104     51325     35980     45955     54276     52759     55388     40104 
dram[18]:     47618     44625     51295     41147     36433     45400     54428     48208     46762     49058     42308     35914     49149     44795     43593     40112 
dram[19]:     48301     46140     44909     49430     39921     44798     53676     47344     44526     46858     38979     46614     53686     42655     55084     40152 
dram[20]:     42283     49639     41042     49078     56050     42852     48224     46269     49829     49339     39905     36899     53889     42316     55077     52756 
dram[21]:     37203     39727     37500     46723     37863     36069     42376     42017     45569     44017     36881     36539     39422     40236     40814     40406 
dram[22]:     40113     54982     36616     44409     33046     37974     45998     44818     43993     60243     36845     46067     39438     40371     54810     52867 
dram[23]:     35162     38390     42038     43965     36531     45786     46155     42651     42465     44339     37574     36284     39712     46351     54232     53597 
dram[24]:     56114     37496     41648     34824     39356     47039     48428     50148     47337     49527     37370     46993     38795     53178     55360     40458 
dram[25]:     38470     55125     44527     50600     46099     47174     53155     56271     51706     49402     36863     40447     40729     43854     43223     40112 
dram[26]:     46976     49840     51668     47026     44626     47728     42823     55672     49607     48683     43728     38023     52625     41376     40047     40238 
dram[27]:     44717     49419     49231     40957     38861     47537     49461     56818     52315     50117     47528     47369     38834     41181     53776     40313 
dram[28]:     47418     44204     44702     36140     36370     40669     42987     56537     49072     45470     40165     47949     40284     41387     40121     40044 
dram[29]:     43321     40609     57932     40912     46051     32996     42785     40798     42070     41817     36312     37488     39886     54086     40386     40570 
dram[30]:     37986     36289     37556     58199     34004     42690     45795     42607     48424     43747     36166     37649     39166     39459     40474     40804 
dram[31]:     45221     39862     46606     38689     45960     44097     40264     48256     40512     52353     36580     37598     38969     39730     40418     40991 
average row accesses per activate:
dram[0]:  9.857142 10.433333 10.978724  9.603773 11.880953 12.794871  9.641509  8.360656  9.260000 10.761905  6.714286  7.607143 12.166667 12.085714  9.062500  8.509804 
dram[1]: 18.966667 14.404762 15.200000 19.730770 20.958334 16.766666 15.575758 11.711111 14.114285 14.818182 10.775000 10.804878 12.882353 15.777778 11.657895 12.371428 
dram[2]: 20.464285 21.074074 15.000000 11.976745 16.741936 14.083333 11.355556 10.340000 13.857142 12.307693 10.116279 12.529411 14.833333 13.645162 13.060606 13.531250 
dram[3]: 21.428572 18.709677 14.405405 11.191489 17.821428 17.133333 11.720930 11.311111 13.184211 13.657143 11.210526 10.238095 14.566667 11.631579 12.696970 10.875000 
dram[4]: 20.379311 19.033333 18.172413 11.106383 18.428572 14.742857 11.954545  8.964912 17.344828 13.810811  9.866667 10.487804 14.500000 16.222221 12.472222 12.361111 
dram[5]: 15.763158 20.961538 16.625000 15.969697 16.548388 17.750000 13.461538 12.829268 16.655172 15.600000 12.500000 14.793103 14.733334 13.625000 13.121212 13.437500 
dram[6]: 21.321428 22.391304 17.965517 13.100000 18.103449 13.500000 12.409091 15.906250 13.722222 13.600000 12.848485 12.470589 16.538462 17.000000 13.903226 13.625000 
dram[7]: 19.645161 23.363636 16.903225 16.060606 18.481482 16.125000 12.418605 10.673470 16.482759 16.448277 13.312500 13.242424 17.307692 14.161290 10.642858 15.666667 
dram[8]: 15.410256 14.542857 10.680851  8.306452 13.888889 11.152174 10.760870  7.013699  9.229167  9.829787  7.678571  7.016129  9.613636  9.911111  8.346154  9.326087 
dram[9]: 16.684210 23.043478 14.216216 15.088235 23.285715 17.275862 13.684211 10.117647 15.258064 17.925926 11.128205 10.897436 15.821428 13.242424 11.675675 12.194445 
dram[10]: 28.454546 25.750000 13.945946 13.871795 21.041666 17.275862 16.354839  8.467742 14.382353 11.500000  8.720000 10.902439 13.058824 13.242424 11.916667 11.282051 
dram[11]: 31.500000 22.304348 14.388889 10.937500 23.090910 15.212121 17.896551  9.740741 17.428572 18.222221  9.704545  8.529411 14.333333 13.090909 10.850000 12.514286 
dram[12]: 18.969696 23.043478 15.424242 13.473684 17.892857 17.241379 13.526316 10.450980 14.264706 12.461538 10.750000 10.871795 11.621622 14.300000 11.236842 11.025000 
dram[13]: 16.256411 22.041666 14.800000 15.909091 16.250000 18.142857 17.655172 11.739130 15.774194 14.000000 12.194445 11.105263 12.527778 12.771428 14.931034 11.333333 
dram[14]: 16.810810 23.260870 15.529411 12.511628 16.031250 15.264706 19.153847 11.909091 14.088235 10.954545 13.424242 11.100000 14.827586 15.555555 15.666667 13.935484 
dram[15]: 16.736841 19.074074 15.696970 13.500000 20.625000 14.600000 16.580645 11.041667 14.696970 12.972973 11.342105 10.463414 13.531250 14.064516 13.718750 12.542857 
dram[16]:  9.843750 12.525000  9.566038 10.196078 12.487804 11.244445  9.415094  8.803572  9.510204  8.980000  8.580000  8.352942 12.411765 11.026316  8.693877 12.057143 
dram[17]: 10.190476 24.714285 17.700001 15.750000 19.461538 20.440001 13.837838 11.041667 13.771428 22.136364 10.487804 11.131579 13.088235 15.392858 11.342105 13.375000 
dram[18]: 29.681818 24.714285 11.170213 13.512820 19.461538 19.846153 12.682927 13.000000 12.473684 18.222221 11.789474 11.333333 16.615385 13.843750 11.394737 12.400000 
dram[19]: 21.333334 25.238094 14.216216 13.050000 21.304348 20.750000 12.571428 11.085107 12.631579 16.827587 11.179487 10.775000 15.518518 16.461538 12.500000 14.129032 
dram[20]: 20.419355 28.388889 15.028571 12.853659 16.666666 17.413794 10.934783  9.792453 14.705882 16.533333 12.000000 10.046512 15.629630 15.321428 11.289474 11.351352 
dram[21]: 10.610169 26.000000 12.619047 17.533333 17.433332 17.633333 13.125000 17.366667 14.085714 15.000000 13.625000 13.060606 14.793103 14.233334 12.411765 11.333333 
dram[22]:  9.750000 26.842106 15.294118 15.428572 16.062500 20.200001 13.918919 11.590909 13.270270 14.781250 12.705882 16.576923 13.484848 19.409090 14.931034 14.896552 
dram[23]: 13.446809 20.680000 14.805555 12.857142 15.411765 18.172413 11.195652 12.452381 13.277778 16.857143 13.500000 12.371428 13.781250 13.666667 13.781250 12.794118 
dram[24]: 12.812500 15.454545  9.941176 11.928572 12.743589 12.600000  8.206349  9.471698  8.907408  8.557693  7.237288  6.935484 10.512196 10.341463  9.276596  7.122807 
dram[25]: 13.163265 23.434782 15.606061 14.513514 19.307692 23.045454 10.714286 16.419355 18.719999 17.642857 10.463414 12.818182 17.708334 15.068966 10.750000 11.500000 
dram[26]: 15.190476 26.700001 11.000000 15.264706 17.133333 20.719999 11.488889 11.681818 13.970589 17.500000 10.775000 10.023255 13.903226 12.171429 15.925926 11.189189 
dram[27]: 20.322580 22.500000 13.512820 12.829268 18.481482 17.965517 11.042553 12.634147 14.848485 15.193548 10.794871 11.918919 14.689655 15.250000 11.916667 12.029411 
dram[28]: 17.000000 29.111111 14.805555 12.186047 17.333334 21.260870  9.392858 14.571428 15.062500 13.705882 11.540541 11.972222 13.774194 13.606061 12.222222 10.225000 
dram[29]: 17.888889 22.416666 14.194445 15.606061 16.870968 18.592592 13.631579 15.515152 17.571428 13.828571 11.210526 12.617647 12.823529 14.000000 11.368421 14.068966 
dram[30]: 25.500000 22.125000 19.074074 19.111111 16.677420 16.419355 13.621622 14.971429 13.800000 14.705882 11.594595 15.357142 14.066667 14.833333 14.500000 12.878788 
dram[31]: 20.812500 19.444445 12.952381 14.108109 19.576923 18.357143 14.108109 15.176471 14.968750 15.419354 11.916667 14.758620 15.666667 16.222221 12.457143 14.392858 
average row locality = 249730/18349 = 13.610006
number of total memory accesses made:
dram[0]:         0         0         0         0         0         0         0         0         0         0         0         0         0         0         0         0 
dram[1]:         0         0         0         0         0         0         0         0         0         0         0         0         0         0         0         0 
dram[2]:         0         0         0         0         0         0         0         0         0         0         0         0         0         0         0         0 
dram[3]:         0         0         0         0         0         0         0         0         0         0         0         0         0         0         0         0 
dram[4]:         0         0         0         0         0         0         0         0         0         0         0         0         0         0         0         0 
dram[5]:         0         0         0         0         0         0         0         0         0         0         0         0         0         0         0         0 
dram[6]:         0         0         0         0         0         0         0         0         0         0         0         0         0         0         0         0 
dram[7]:         0         0         0         0         0         0         0         0         0         0         0         0         0         0         0         0 
dram[8]:         0         0         0         0         0         0         0         0         0         0         0         0         0         0         0         0 
dram[9]:         0         0         0         0         0         0         0         0         0         0         0         0         0         0         0         0 
dram[10]:         0         0         0         0         0         0         0         0         0         0         0         0         0         0         0         0 
dram[11]:         0         0         0         0         0         0         0         0         0         0         0         0         0         0         0         0 
dram[12]:         0         0         0         0         0         0         0         0         0         0         0         0         0         0         0         0 
dram[13]:         0         0         0         0         0         0         0         0         0         0         0         0         0         0         0         0 
dram[14]:         0         0         0         0         0         0         0         0         0         0         0         0         0         0         0         0 
dram[15]:         0         0         0         0         0         0         0         0         0         0         0         0         0         0         0         0 
dram[16]:         0         0         0         0         0         0         0         0         0         0         0         0         0         0         0         0 
dram[17]:         0         0         0         0         0         0         0         0         0         0         0         0         0         0         0         0 
dram[18]:         0         0         0         0         0         0         0         0         0         0         0         0         0         0         0         0 
dram[19]:         0         0         0         0         0         0         0         0         0         0         0         0         0         0         0         0 
dram[20]:         0         0         0         0         0         0         0         0         0         0         0         0         0         0         0         0 
dram[21]:         0         0         0         0         0         0         0         0         0         0         0         0         0         0         0         0 
dram[22]:         0         0         0         0         0         0         0         0         0         0         0         0         0         0         0         0 
dram[23]:         0         0         0         0         0         0         0         0         0         0         0         0         0         0         0         0 
dram[24]:         0         0         0         0         0         0         0         0         0         0         0         0         0         0         0         0 
dram[25]:         0         0         0         0         0         0         0         0         0         0         0         0         0         0         0         0 
dram[26]:         0         0         0         0         0         0         0         0         0         0         0         0         0         0         0         0 
dram[27]:         0         0         0         0         0         0         0         0         0         0         0         0         0         0         0         0 
dram[28]:         0         0         0         0         0         0         0         0         0         0         0         0         0         0         0         0 
dram[29]:         0         0         0         0         0         0         0         0         0         0         0         0         0         0         0         0 
dram[30]:         0         0         0         0         0         0         0         0         0         0         0         0         0         0         0         0 
[...]
n_act = 546 
n_pre = 530 
n_ref = 0 
n_req = 7794 
total_req = 10265 

Dual Bus Interface Util: 
issued_total_row = 1076 
issued_total_col = 10265 
Row_Bus_Util =  0.006783 
CoL_Bus_Util = 0.064707 
Either_Row_CoL_Bus_Util = 0.070179 
Issued_on_Two_Bus_Simul_Util = 0.001311 
issued_two_Eff = 0.018683 
queue_avg = 0.535045 


dram_util_bins: 0 0 0 0 0 0 0 0 0 0
dram_eff_bins: 0 0 0 0 0 0 0 0 0 0
mrqq: max=64 avg=0.535045
Memory Partition 28: 
Cache L2_bank_056:

Cache L2_bank_057:

In Dram Latency Queue (total = 256): 
DRAM[28]: 16 bks, busW=16 BL=2 CL=12, tRRD=3 tCCD=1, tRCD=12 tRAS=28 tRP=12 tRC=40
n_cmd=158637 n_nop=147510 n_act=557 n_pre=541 n_ref_event=0 n_req=7786 n_rd=6736 n_rd_L2_A=0 n_write=0 n_wr_bk=3520 bw_util=0.06465
n_activity=41031 dram_eff=0.25
bk0: 448a 155996i bk1: 448a 157259i bk2: 448a 156642i bk3: 448a 156344i bk4: 448a 157062i bk5: 448a 157280i bk6: 448a 156146i bk7: 448a 156572i bk8: 440a 156907i bk9: 424a 156962i bk10: 384a 156928i bk11: 384a 157001i bk12: 384a 156967i bk13: 384a 156989i bk14: 384a 157042i bk15: 368a 157056i 

------------------------------------------------------------------------

Row_Buffer_Locality = 0.928461
Row_Buffer_Locality_read = 0.941657
Row_Buffer_Locality_write = 0.843810
Bank_Level_Parallism = 1.449233
Bank_Level_Parallism_Col = 1.323525
Bank_Level_Parallism_Ready = 1.087559
write_to_read_ratio_blp_rw_average = 0.469772
GrpLevelPara = 1.274655 

BW Util details:
bwutil = 0.064651 
total_CMD = 158637 
util_bw = 10256 
Wasted_Col = 11698 
Wasted_Row = 3456 
Idle = 133227 

BW Util Bottlenecks: 
RCDc_limit = 3426 
RCDWRc_limit = 1346 
WTRc_limit = 974 
RTWc_limit = 4121 
CCDLc_limit = 4933 
rwq = 0 
CCDLc_limit_alone = 4713 
WTRc_limit_alone = 899 
RTWc_limit_alone = 3976 

Commands details: 
total_CMD = 158637 
n_nop = 147510 
Read = 6736 
Write = 0 
L2_Alloc = 0 
L2_WB = 3520 
n_act = 557 
n_pre = 541 
n_ref = 0 
n_req = 7786 
total_req = 10256 

Dual Bus Interface Util: 
issued_total_row = 1098 
issued_total_col = 10256 
Row_Bus_Util =  0.006921 
CoL_Bus_Util = 0.064651 
Either_Row_CoL_Bus_Util = 0.070141 
Issued_on_Two_Bus_Simul_Util = 0.001431 
issued_two_Eff = 0.020401 
queue_avg = 0.538506 


dram_util_bins: 0 0 0 0 0 0 0 0 0 0
dram_eff_bins: 0 0 0 0 0 0 0 0 0 0
mrqq: max=53 avg=0.538506
Memory Partition 29: 
Cache L2_bank_058:

Cache L2_bank_059:

In Dram Latency Queue (total = 256): 
DRAM[29]: 16 bks, busW=16 BL=2 CL=12, tRRD=3 tCCD=1, tRCD=12 tRAS=28 tRP=12 tRC=40
n_cmd=158637 n_nop=147502 n_act=525 n_pre=509 n_ref_event=0 n_req=7804 n_rd=6728 n_rd_L2_A=0 n_write=0 n_wr_bk=3567 bw_util=0.0649
n_activity=42005 dram_eff=0.2451
bk0: 448a 155837i bk1: 448a 156964i bk2: 448a 156870i bk3: 448a 156758i bk4: 448a 156984i bk5: 448a 157117i bk6: 448a 156576i bk7: 448a 156784i bk8: 432a 157035i bk9: 424a 156787i bk10: 384a 156796i bk11: 384a 156939i bk12: 384a 156908i bk13: 384a 157138i bk14: 384a 156991i bk15: 368a 157217i 

------------------------------------------------------------------------

Row_Buffer_Locality = 0.932727
Row_Buffer_Locality_read = 0.942628
Row_Buffer_Locality_write = 0.870818
Bank_Level_Parallism = 1.411433
Bank_Level_Parallism_Col = 1.289674
Bank_Level_Parallism_Ready = 1.067508
write_to_read_ratio_blp_rw_average = 0.478378
GrpLevelPara = 1.239951 

BW Util details:
bwutil = 0.064897 
total_CMD = 158637 
util_bw = 10295 
Wasted_Col = 12031 
Wasted_Row = 3389 
Idle = 132922 

BW Util Bottlenecks: 
RCDc_limit = 3474 
RCDWRc_limit = 1159 
WTRc_limit = 872 
RTWc_limit = 4546 
CCDLc_limit = 5011 
rwq = 0 
CCDLc_limit_alone = 4681 
WTRc_limit_alone = 762 
RTWc_limit_alone = 4326 

Commands details: 
total_CMD = 158637 
n_nop = 147502 
Read = 6728 
Write = 0 
L2_Alloc = 0 
L2_WB = 3567 
n_act = 525 
n_pre = 509 
n_ref = 0 
n_req = 7804 
total_req = 10295 

Dual Bus Interface Util: 
issued_total_row = 1034 
issued_total_col = 10295 
Row_Bus_Util =  0.006518 
CoL_Bus_Util = 0.064897 
Either_Row_CoL_Bus_Util = 0.070192 
Issued_on_Two_Bus_Simul_Util = 0.001223 
issued_two_Eff = 0.017423 
queue_avg = 0.517143 


dram_util_bins: 0 0 0 0 0 0 0 0 0 0
dram_eff_bins: 0 0 0 0 0 0 0 0 0 0
mrqq: max=55 avg=0.517143
Memory Partition 30: 
Cache L2_bank_060:

Cache L2_bank_061:

In Dram Latency Queue (total = 256): 
DRAM[30]: 16 bks, busW=16 BL=2 CL=12, tRRD=3 tCCD=1, tRCD=12 tRAS=28 tRP=12 tRC=40
n_cmd=158637 n_nop=147605 n_act=493 n_pre=477 n_ref_event=0 n_req=7797 n_rd=6720 n_rd_L2_A=0 n_write=0 n_wr_bk=3526 bw_util=0.06459
n_activity=40245 dram_eff=0.2546
bk0: 448a 156498i bk1: 448a 157128i bk2: 448a 156837i bk3: 448a 156818i bk4: 448a 156874i bk5: 448a 157121i bk6: 448a 156708i bk7: 448a 156878i bk8: 424a 156976i bk9: 424a 156714i bk10: 384a 156970i bk11: 384a 157087i bk12: 384a 157172i bk13: 384a 157083i bk14: 384a 157231i bk15: 368a 157053i 

------------------------------------------------------------------------

Row_Buffer_Locality = 0.936771
Row_Buffer_Locality_read = 0.945536
Row_Buffer_Locality_write = 0.882080
Bank_Level_Parallism = 1.384557
Bank_Level_Parallism_Col = 1.267920
Bank_Level_Parallism_Ready = 1.062659
write_to_read_ratio_blp_rw_average = 0.468591
GrpLevelPara = 1.222422 

BW Util details:
bwutil = 0.064588 
total_CMD = 158637 
util_bw = 10246 
Wasted_Col = 11726 
Wasted_Row = 3192 
Idle = 133473 

BW Util Bottlenecks: 
RCDc_limit = 3335 
RCDWRc_limit = 1038 
WTRc_limit = 748 
RTWc_limit = 4056 
CCDLc_limit = 5084 
rwq = 0 
CCDLc_limit_alone = 4791 
WTRc_limit_alone = 653 
RTWc_limit_alone = 3858 

Commands details: 
total_CMD = 158637 
n_nop = 147605 
Read = 6720 
Write = 0 
L2_Alloc = 0 
L2_WB = 3526 
n_act = 493 
n_pre = 477 
n_ref = 0 
n_req = 7797 
total_req = 10246 

Dual Bus Interface Util: 
issued_total_row = 970 
issued_total_col = 10246 
Row_Bus_Util =  0.006115 
CoL_Bus_Util = 0.064588 
Either_Row_CoL_Bus_Util = 0.069542 
Issued_on_Two_Bus_Simul_Util = 0.001160 
issued_two_Eff = 0.016679 
queue_avg = 0.497488 


dram_util_bins: 0 0 0 0 0 0 0 0 0 0
dram_eff_bins: 0 0 0 0 0 0 0 0 0 0
mrqq: max=42 avg=0.497488
Memory Partition 31: 
Cache L2_bank_062:

Cache L2_bank_063:

In Dram Latency Queue (total = 256): 
DRAM[31]: 16 bks, busW=16 BL=2 CL=12, tRRD=3 tCCD=1, tRCD=12 tRAS=28 tRP=12 tRC=40
n_cmd=158637 n_nop=147485 n_act=508 n_pre=492 n_ref_event=0 n_req=7832 n_rd=6720 n_rd_L2_A=0 n_write=0 n_wr_bk=3623 bw_util=0.0652
n_activity=40460 dram_eff=0.2556
bk0: 448a 156154i bk1: 448a 156881i bk2: 448a 156628i bk3: 448a 156604i bk4: 448a 157044i bk5: 448a 157159i bk6: 448a 156694i bk7: 448a 156800i bk8: 424a 156860i bk9: 424a 156947i bk10: 384a 156844i bk11: 384a 157155i bk12: 384a 157266i bk13: 384a 157268i bk14: 384a 157095i bk15: 368a 157204i 

------------------------------------------------------------------------

Row_Buffer_Locality = 0.935138
Row_Buffer_Locality_read = 0.945387
Row_Buffer_Locality_write = 0.873201
Bank_Level_Parallism = 1.387209
Bank_Level_Parallism_Col = 1.276319
Bank_Level_Parallism_Ready = 1.058107
write_to_read_ratio_blp_rw_average = 0.484662
GrpLevelPara = 1.231714 

BW Util details:
bwutil = 0.065199 
total_CMD = 158637 
util_bw = 10343 
Wasted_Col = 11913 
Wasted_Row = 3278 
Idle = 133103 

BW Util Bottlenecks: 
RCDc_limit = 3314 
RCDWRc_limit = 1186 
WTRc_limit = 716 
RTWc_limit = 4351 
CCDLc_limit = 5161 
rwq = 0 
CCDLc_limit_alone = 4831 
WTRc_limit_alone = 615 
RTWc_limit_alone = 4122 

Commands details: 
total_CMD = 158637 
n_nop = 147485 
Read = 6720 
Write = 0 
L2_Alloc = 0 
L2_WB = 3623 
n_act = 508 
n_pre = 492 
n_ref = 0 
n_req = 7832 
total_req = 10343 

Dual Bus Interface Util: 
issued_total_row = 1000 
issued_total_col = 10343 
Row_Bus_Util =  0.006304 
CoL_Bus_Util = 0.065199 
Either_Row_CoL_Bus_Util = 0.070299 
Issued_on_Two_Bus_Simul_Util = 0.001204 
issued_two_Eff = 0.017127 
queue_avg = 0.493517 


dram_util_bins: 0 0 0 0 0 0 0 0 0 0
dram_eff_bins: 0 0 0 0 0 0 0 0 0 0
mrqq: max=47 avg=0.493517

========= L2 cache stats =========
L2_cache_bank[0]: Access = 18043, Miss = 7549, Miss_rate = 0.418, Pending_hits = 39, Reservation_fails = 0
L2_cache_bank[1]: Access = 18418, Miss = 7779, Miss_rate = 0.422, Pending_hits = 44, Reservation_fails = 0
L2_cache_bank[2]: Access = 18154, Miss = 7730, Miss_rate = 0.426, Pending_hits = 28, Reservation_fails = 0
L2_cache_bank[3]: Access = 18788, Miss = 7934, Miss_rate = 0.422, Pending_hits = 24, Reservation_fails = 0
L2_cache_bank[4]: Access = 18262, Miss = 7801, Miss_rate = 0.427, Pending_hits = 16, Reservation_fails = 0
L2_cache_bank[5]: Access = 18351, Miss = 7843, Miss_rate = 0.427, Pending_hits = 106, Reservation_fails = 0
L2_cache_bank[6]: Access = 18291, Miss = 7790, Miss_rate = 0.426, Pending_hits = 4, Reservation_fails = 0
L2_cache_bank[7]: Access = 18376, Miss = 7730, Miss_rate = 0.421, Pending_hits = 33, Reservation_fails = 0
L2_cache_bank[8]: Access = 18321, Miss = 7558, Miss_rate = 0.413, Pending_hits = 0, Reservation_fails = 95
L2_cache_bank[9]: Access = 18875, Miss = 7801, Miss_rate = 0.413, Pending_hits = 79, Reservation_fails = 0
L2_cache_bank[10]: Access = 18714, Miss = 7700, Miss_rate = 0.411, Pending_hits = 3, Reservation_fails = 0
L2_cache_bank[11]: Access = 18497, Miss = 7629, Miss_rate = 0.412, Pending_hits = 0, Reservation_fails = 0
L2_cache_bank[12]: Access = 18620, Miss = 7744, Miss_rate = 0.416, Pending_hits = 0, Reservation_fails = 0
L2_cache_bank[13]: Access = 18344, Miss = 7552, Miss_rate = 0.412, Pending_hits = 0, Reservation_fails = 0
L2_cache_bank[14]: Access = 18120, Miss = 7688, Miss_rate = 0.424, Pending_hits = 0, Reservation_fails = 0
L2_cache_bank[15]: Access = 17901, Miss = 7582, Miss_rate = 0.424, Pending_hits = 0, Reservation_fails = 0
L2_cache_bank[16]: Access = 18273, Miss = 7712, Miss_rate = 0.422, Pending_hits = 43, Reservation_fails = 0
L2_cache_bank[17]: Access = 18390, Miss = 7650, Miss_rate = 0.416, Pending_hits = 115, Reservation_fails = 0
L2_cache_bank[18]: Access = 18694, Miss = 7823, Miss_rate = 0.418, Pending_hits = 21, Reservation_fails = 0
L2_cache_bank[19]: Access = 18639, Miss = 7861, Miss_rate = 0.422, Pending_hits = 19, Reservation_fails = 0
L2_cache_bank[20]: Access = 18378, Miss = 7805, Miss_rate = 0.425, Pending_hits = 0, Reservation_fails = 0
L2_cache_bank[21]: Access = 18320, Miss = 7703, Miss_rate = 0.420, Pending_hits = 124, Reservation_fails = 0
L2_cache_bank[22]: Access = 18347, Miss = 7839, Miss_rate = 0.427, Pending_hits = 4, Reservation_fails = 4
L2_cache_bank[23]: Access = 18237, Miss = 7811, Miss_rate = 0.428, Pending_hits = 20, Reservation_fails = 0
L2_cache_bank[24]: Access = 18896, Miss = 7907, Miss_rate = 0.418, Pending_hits = 12, Reservation_fails = 0
L2_cache_bank[25]: Access = 18736, Miss = 7743, Miss_rate = 0.413, Pending_hits = 53, Reservation_fails = 0
L2_cache_bank[26]: Access = 18730, Miss = 7657, Miss_rate = 0.409, Pending_hits = 4, Reservation_fails = 0
L2_cache_bank[27]: Access = 18682, Miss = 7627, Miss_rate = 0.408, Pending_hits = 0, Reservation_fails = 0
L2_cache_bank[28]: Access = 18631, Miss = 7748, Miss_rate = 0.416, Pending_hits = 8, Reservation_fails = 0
L2_cache_bank[29]: Access = 18524, Miss = 7599, Miss_rate = 0.410, Pending_hits = 0, Reservation_fails = 0
L2_cache_bank[30]: Access = 18004, Miss = 7695, Miss_rate = 0.427, Pending_hits = 12, Reservation_fails = 0
L2_cache_bank[31]: Access = 18147, Miss = 7641, Miss_rate = 0.421, Pending_hits = 0, Reservation_fails = 0
L2_cache_bank[32]: Access = 18605, Miss = 7826, Miss_rate = 0.421, Pending_hits = 57, Reservation_fails = 0
L2_cache_bank[33]: Access = 18149, Miss = 7622, Miss_rate = 0.420, Pending_hits = 90, Reservation_fails = 0
L2_cache_bank[34]: Access = 18479, Miss = 7821, Miss_rate = 0.423, Pending_hits = 51, Reservation_fails = 0
L2_cache_bank[35]: Access = 18700, Miss = 7838, Miss_rate = 0.419, Pending_hits = 20, Reservation_fails = 0
L2_cache_bank[36]: Access = 18296, Miss = 7737, Miss_rate = 0.423, Pending_hits = 20, Reservation_fails = 0
L2_cache_bank[37]: Access = 18136, Miss = 7727, Miss_rate = 0.426, Pending_hits = 5, Reservation_fails = 0
L2_cache_bank[38]: Access = 18218, Miss = 7794, Miss_rate = 0.428, Pending_hits = 21, Reservation_fails = 0
L2_cache_bank[39]: Access = 18385, Miss = 7795, Miss_rate = 0.424, Pending_hits = 8, Reservation_fails = 0
L2_cache_bank[40]: Access = 18995, Miss = 7834, Miss_rate = 0.412, Pending_hits = 0, Reservation_fails = 0
L2_cache_bank[41]: Access = 18596, Miss = 7790, Miss_rate = 0.419, Pending_hits = 138, Reservation_fails = 0
L2_cache_bank[42]: Access = 18552, Miss = 7665, Miss_rate = 0.413, Pending_hits = 3, Reservation_fails = 0
L2_cache_bank[43]: Access = 18601, Miss = 7604, Miss_rate = 0.409, Pending_hits = 1, Reservation_fails = 0
L2_cache_bank[44]: Access = 18739, Miss = 7703, Miss_rate = 0.411, Pending_hits = 0, Reservation_fails = 0
L2_cache_bank[45]: Access = 18373, Miss = 7604, Miss_rate = 0.414, Pending_hits = 0, Reservation_fails = 0
L2_cache_bank[46]: Access = 17993, Miss = 7598, Miss_rate = 0.422, Pending_hits = 0, Reservation_fails = 0
L2_cache_bank[47]: Access = 18079, Miss = 7630, Miss_rate = 0.422, Pending_hits = 8, Reservation_fails = 0
L2_cache_bank[48]: Access = 18714, Miss = 7863, Miss_rate = 0.420, Pending_hits = 40, Reservation_fails = 0
L2_cache_bank[49]: Access = 17725, Miss = 7420, Miss_rate = 0.419, Pending_hits = 36, Reservation_fails = 0
L2_cache_bank[50]: Access = 18593, Miss = 7871, Miss_rate = 0.423, Pending_hits = 44, Reservation_fails = 0
L2_cache_bank[51]: Access = 18192, Miss = 7618, Miss_rate = 0.419, Pending_hits = 20, Reservation_fails = 0
L2_cache_bank[52]: Access = 18349, Miss = 7802, Miss_rate = 0.425, Pending_hits = 7, Reservation_fails = 0
L2_cache_bank[53]: Access = 18171, Miss = 7703, Miss_rate = 0.424, Pending_hits = 0, Reservation_fails = 0
L2_cache_bank[54]: Access = 18411, Miss = 7828, Miss_rate = 0.425, Pending_hits = 1, Reservation_fails = 0
L2_cache_bank[55]: Access = 17891, Miss = 7642, Miss_rate = 0.427, Pending_hits = 8, Reservation_fails = 0
L2_cache_bank[56]: Access = 18841, Miss = 7895, Miss_rate = 0.419, Pending_hits = 0, Reservation_fails = 0
L2_cache_bank[57]: Access = 18513, Miss = 7556, Miss_rate = 0.408, Pending_hits = 12, Reservation_fails = 0
L2_cache_bank[58]: Access = 18957, Miss = 7718, Miss_rate = 0.407, Pending_hits = 0, Reservation_fails = 0
L2_cache_bank[59]: Access = 18059, Miss = 7555, Miss_rate = 0.418, Pending_hits = 0, Reservation_fails = 0
L2_cache_bank[60]: Access = 18231, Miss = 7681, Miss_rate = 0.421, Pending_hits = 0, Reservation_fails = 0
L2_cache_bank[61]: Access = 18240, Miss = 7563, Miss_rate = 0.415, Pending_hits = 13, Reservation_fails = 0
L2_cache_bank[62]: Access = 18175, Miss = 7664, Miss_rate = 0.422, Pending_hits = 0, Reservation_fails = 0
L2_cache_bank[63]: Access = 17885, Miss = 7616, Miss_rate = 0.426, Pending_hits = 0, Reservation_fails = 0
L2_total_cache_accesses = 1177546
L2_total_cache_misses = 493814
L2_total_cache_miss_rate = 0.4194
L2_total_cache_pending_hits = 1414
L2_total_cache_reservation_fails = 99
L2_total_cache_breakdown:
	L2_cache_stats_breakdown[GLOBAL_ACC_R][HIT] = 664970
	L2_cache_stats_breakdown[GLOBAL_ACC_R][HIT_RESERVED] = 1414
	L2_cache_stats_breakdown[GLOBAL_ACC_R][MISS] = 54030
	L2_cache_stats_breakdown[GLOBAL_ACC_R][RESERVATION_FAIL] = 99
	L2_cache_stats_breakdown[GLOBAL_ACC_R][SECTOR_MISS] = 162080
	L2_cache_stats_breakdown[LOCAL_ACC_R][HIT] = 0
	L2_cache_stats_breakdown[LOCAL_ACC_R][HIT_RESERVED] = 0
	L2_cache_stats_breakdown[LOCAL_ACC_R][MISS] = 0
	L2_cache_stats_breakdown[LOCAL_ACC_R][RESERVATION_FAIL] = 0
	L2_cache_stats_breakdown[LOCAL_ACC_R][SECTOR_MISS] = 0
	L2_cache_stats_breakdown[CONST_ACC_R][HIT] = 0
	L2_cache_stats_breakdown[CONST_ACC_R][HIT_RESERVED] = 0
	L2_cache_stats_breakdown[CONST_ACC_R][MISS] = 0
	L2_cache_stats_breakdown[CONST_ACC_R][RESERVATION_FAIL] = 0
	L2_cache_stats_breakdown[CONST_ACC_R][SECTOR_MISS] = 0
	L2_cache_stats_breakdown[TEXTURE_ACC_R][HIT] = 0
	L2_cache_stats_breakdown[TEXTURE_ACC_R][HIT_RESERVED] = 0
	L2_cache_stats_breakdown[TEXTURE_ACC_R][MISS] = 0
	L2_cache_stats_breakdown[TEXTURE_ACC_R][RESERVATION_FAIL] = 0
	L2_cache_stats_breakdown[TEXTURE_ACC_R][SECTOR_MISS] = 0
	L2_cache_stats_breakdown[GLOBAL_ACC_W][HIT] = 17348
	L2_cache_stats_breakdown[GLOBAL_ACC_W][HIT_RESERVED] = 0
	L2_cache_stats_breakdown[GLOBAL_ACC_W][MISS] = 164871
	L2_cache_stats_breakdown[GLOBAL_ACC_W][RESERVATION_FAIL] = 0
	L2_cache_stats_breakdown[GLOBAL_ACC_W][SECTOR_MISS] = 112833
	L2_cache_stats_breakdown[LOCAL_ACC_W][HIT] = 0
	L2_cache_stats_breakdown[LOCAL_ACC_W][HIT_RESERVED] = 0
	L2_cache_stats_breakdown[LOCAL_ACC_W][MISS] = 0
	L2_cache_stats_breakdown[LOCAL_ACC_W][RESERVATION_FAIL] = 0
	L2_cache_stats_breakdown[LOCAL_ACC_W][SECTOR_MISS] = 0
	L2_cache_stats_breakdown[L1_WRBK_ACC][HIT] = 0
	L2_cache_stats_breakdown[L1_WRBK_ACC][HIT_RESERVED] = 0
	L2_cache_stats_breakdown[L1_WRBK_ACC][MISS] = 0
	L2_cache_stats_breakdown[L1_WRBK_ACC][RESERVATION_FAIL] = 0
	L2_cache_stats_breakdown[L1_WRBK_ACC][SECTOR_MISS] = 0
	L2_cache_stats_breakdown[L2_WRBK_ACC][HIT] = 0
	L2_cache_stats_breakdown[L2_WRBK_ACC][HIT_RESERVED] = 0
	L2_cache_stats_breakdown[L2_WRBK_ACC][MISS] = 0
	L2_cache_stats_breakdown[L2_WRBK_ACC][RESERVATION_FAIL] = 0
	L2_cache_stats_breakdown[L2_WRBK_ACC][SECTOR_MISS] = 0
	L2_cache_stats_breakdown[INST_ACC_R][HIT] = 0
	L2_cache_stats_breakdown[INST_ACC_R][HIT_RESERVED] = 0
	L2_cache_stats_breakdown[INST_ACC_R][MISS] = 0
	L2_cache_stats_breakdown[INST_ACC_R][RESERVATION_FAIL] = 0
	L2_cache_stats_breakdown[INST_ACC_R][SECTOR_MISS] = 0
	L2_cache_stats_breakdown[L1_WR_ALLOC_R][HIT] = 0
	L2_cache_stats_breakdown[L1_WR_ALLOC_R][HIT_RESERVED] = 0
	L2_cache_stats_breakdown[L1_WR_ALLOC_R][MISS] = 0
	L2_cache_stats_breakdown[L1_WR_ALLOC_R][RESERVATION_FAIL] = 0
	L2_cache_stats_breakdown[L1_WR_ALLOC_R][SECTOR_MISS] = 0
	L2_cache_stats_breakdown[L2_WR_ALLOC_R][HIT] = 0
	L2_cache_stats_breakdown[L2_WR_ALLOC_R][HIT_RESERVED] = 0
	L2_cache_stats_breakdown[L2_WR_ALLOC_R][MISS] = 0
	L2_cache_stats_breakdown[L2_WR_ALLOC_R][RESERVATION_FAIL] = 0
	L2_cache_stats_breakdown[L2_WR_ALLOC_R][SECTOR_MISS] = 0
	L2_cache_stats_breakdown[GLOBAL_ACC_R][TOTAL_ACCESS] = 882494
	L2_cache_stats_breakdown[GLOBAL_ACC_W][TOTAL_ACCESS] = 295052
L2_total_cache_reservation_fail_breakdown:
	L2_cache_stats_fail_breakdown[GLOBAL_ACC_R][MSHR_ENRTY_FAIL] = 99
L2_cache_data_port_util = 0.054
L2_cache_fill_port_util = 0.016

icnt_total_pkts_mem_to_simt=3714001
icnt_total_pkts_simt_to_mem=3758015
LD_mem_lat_dist  0 0 0 0 0 0 0 0 0 0 0 0 0 0 0 0 0 0 0 0 0 0 0 0 0 0 0
ST_mem_lat_dist  0 0 0 0 0 0 0 0 0 0 0 0 0 0 0 0 0 0 0 0 0 0 0 0 0 0 0
----------------------------Interconnect-DETAILS--------------------------------
Req_Network_injected_packets_num = 3758015
Req_Network_cycles = 211268
Req_Network_injected_packets_per_cycle =      17.7879 
Req_Network_conflicts_per_cycle =      43.8028
Req_Network_conflicts_per_cycle_util =      44.9815
Req_Bank_Level_Parallism =      18.2062
Req_Network_in_buffer_full_per_cycle =       9.3337
Req_Network_in_buffer_avg_util =     192.6560
Req_Network_out_buffer_full_per_cycle =       0.9638
Req_Network_out_buffer_avg_util =     146.4463

Reply_Network_injected_packets_num = 3714043
Reply_Network_cycles = 211268
Reply_Network_injected_packets_per_cycle =       17.5798
Reply_Network_conflicts_per_cycle =        3.5044
Reply_Network_conflicts_per_cycle_util =       3.6075
Reply_Bank_Level_Parallism =      18.0969
Reply_Network_in_buffer_full_per_cycle =       0.0000
Reply_Network_in_buffer_avg_util =       0.2083
Reply_Network_out_buffer_full_per_cycle =       0.0000
Reply_Network_out_buffer_avg_util =       0.2197
----------------------------END-of-Interconnect-DETAILS-------------------------


gpgpu_simulation_time = 0 days, 0 hrs, 22 min, 21 sec (1341 sec)
gpgpu_simulation_rate = 67115 (inst/sec)
gpgpu_simulation_rate = 157 (cycle/sec)
gpgpu_silicon_slowdown = 7210191x
GPGPU-Sim: *** simulation thread exiting ***
GPGPU-Sim: ** break due to reaching the maximum cycles (or instructions) **
GPGPU-Sim: *** exit detected ***
