

        *** GPGPU-Sim Simulator Version 4.0.0  [build gpgpu-sim_git-commit-ffe0a1a00e984ecce9bf36e17ab94c4de0de8108_modified_0.0] ***


GPGPU-Sim PTX: simulation mode 0 (can change with PTX_SIM_MODE_FUNC environment variable:
               1=functional simulation only, 0=detailed performance simulator)
GPGPU-Sim PTX: overriding embedded ptx with ptx file (PTX_SIM_USE_PTX_FILE is set)
GPGPU-Sim: Configuration options:

-save_embedded_ptx                      0 # saves ptx files embedded in binary as <n>.ptx
-keep                                   0 # keep intermediate files created by GPGPU-Sim when interfacing with external programs
-gpgpu_ptx_save_converted_ptxplus                    0 # Saved converted ptxplus to a file
-gpgpu_occupancy_sm_number                   70 # The SM number to pass to ptxas when getting register usage for computing GPU occupancy. This parameter is required in the config.
-ptx_opcode_latency_int      4,13,4,5,145,21 # Opcode latencies for integers <ADD,MAX,MUL,MAD,DIV,SHFL>Default 1,1,19,25,145,32
-ptx_opcode_latency_fp          4,13,4,5,39 # Opcode latencies for single precision floating points <ADD,MAX,MUL,MAD,DIV>Default 1,1,1,1,30
-ptx_opcode_latency_dp         8,19,8,8,330 # Opcode latencies for double precision floating points <ADD,MAX,MUL,MAD,DIV>Default 8,8,8,8,335
-ptx_opcode_latency_sfu                  100 # Opcode latencies for SFU instructionsDefault 8
-ptx_opcode_latency_tesnor                   64 # Opcode latencies for Tensor instructionsDefault 64
-ptx_opcode_initiation_int          2,2,2,2,8,4 # Opcode initiation intervals for integers <ADD,MAX,MUL,MAD,DIV,SHFL>Default 1,1,4,4,32,4
-ptx_opcode_initiation_fp            2,2,2,2,4 # Opcode initiation intervals for single precision floating points <ADD,MAX,MUL,MAD,DIV>Default 1,1,1,1,5
-ptx_opcode_initiation_dp          4,4,4,4,130 # Opcode initiation intervals for double precision floating points <ADD,MAX,MUL,MAD,DIV>Default 8,8,8,8,130
-ptx_opcode_initiation_sfu                    8 # Opcode initiation intervals for sfu instructionsDefault 8
-ptx_opcode_initiation_tensor                   64 # Opcode initiation intervals for tensor instructionsDefault 64
-cdp_latency         7200,8000,100,12000,1600 # CDP API latency <cudaStreamCreateWithFlags, cudaGetParameterBufferV2_init_perWarp, cudaGetParameterBufferV2_perKernel, cudaLaunchDeviceV2_init_perWarp, cudaLaunchDevicV2_perKernel>Default 7200,8000,100,12000,1600
-network_mode                           2 # Interconnection network mode
-inter_config_file                   mesh # Interconnection network config file
-icnt_in_buffer_limit                  512 # in_buffer_limit
-icnt_out_buffer_limit                  512 # out_buffer_limit
-icnt_subnets                           2 # subnets
-icnt_arbiter_algo                      1 # arbiter_algo
-icnt_verbose                           0 # inct_verbose
-icnt_grant_cycles                      1 # grant_cycles
-gpgpu_ptx_use_cuobjdump                    1 # Use cuobjdump to extract ptx and sass from binaries
-gpgpu_experimental_lib_support                    0 # Try to extract code from cuda libraries [Broken because of unknown cudaGetExportTable]
-checkpoint_option                      0 #  checkpointing flag (0 = no checkpoint)
-checkpoint_kernel                      1 #  checkpointing during execution of which kernel (1- 1st kernel)
-checkpoint_CTA                         0 #  checkpointing after # of CTA (< less than total CTA)
-resume_option                          0 #  resume flag (0 = no resume)
-resume_kernel                          0 #  Resume from which kernel (1= 1st kernel)
-resume_CTA                             0 #  resume from which CTA 
-checkpoint_CTA_t                       0 #  resume from which CTA 
-checkpoint_insn_Y                      0 #  resume from which CTA 
-gpgpu_ptx_convert_to_ptxplus                    0 # Convert SASS (native ISA) to ptxplus and run ptxplus
-gpgpu_ptx_force_max_capability                   70 # Force maximum compute capability
-gpgpu_ptx_inst_debug_to_file                    0 # Dump executed instructions' debug information to file
-gpgpu_ptx_inst_debug_file       inst_debug.txt # Executed instructions' debug output file
-gpgpu_ptx_inst_debug_thread_uid                    1 # Thread UID for executed instructions' debug output
-gpgpu_n_mem_for_l2wb_pcommit                   32 # number of memory modules (e.g. memory controllers) in gpu
-gpgpu_n_sub_partition_per_mchannel_for_l2wb_pcommit                    2 # number of memory subpartition in each memory module
-gpgpu_dl2_bsize_for_l2wb_pcommit                  128 # default 128 bytes
-gpgpu_simd_model                       1 # 1 = post-dominator
-gpgpu_shader_core_pipeline              2048:32 # shader core pipeline config, i.e., {<nthread>:<warpsize>}
-gpgpu_tex_cache:l1  N:4:128:256,L:R:m:N:L,T:512:8,128:2 # per-shader L1 texture cache  (READ-ONLY) config  {<nsets>:<bsize>:<assoc>,<rep>:<wr>:<alloc>:<wr_alloc>,<mshr>:<N>:<merge>,<mq>:<rf>}
-gpgpu_const_cache:l1 N:128:64:8,L:R:f:N:L,S:2:64,4 # per-shader L1 constant memory cache  (READ-ONLY) config  {<nsets>:<bsize>:<assoc>,<rep>:<wr>:<alloc>:<wr_alloc>,<mshr>:<N>:<merge>,<mq>} 
-gpgpu_cache:il1     N:64:128:16,L:R:f:N:L,S:2:48,4 # shader L1 instruction cache config  {<nsets>:<bsize>:<assoc>,<rep>:<wr>:<alloc>:<wr_alloc>,<mshr>:<N>:<merge>,<mq>} 
-gpgpu_cache:dl1     S:1:128:256,L:L:s:N:L,A:256:8,16:0,32 # per-shader L1 data cache config  {<nsets>:<bsize>:<assoc>,<rep>:<wr>:<alloc>:<wr_alloc>,<mshr>:<N>:<merge>,<mq> | none}
-gpgpu_l1_banks                         4 # The number of L1 cache banks
-gpgpu_l1_banks_byte_interleaving                   32 # l1 banks byte interleaving granularity
-gpgpu_l1_banks_hashing_function                    0 # l1 banks hashing function
-gpgpu_l1_latency                      20 # L1 Hit Latency
-gpgpu_smem_latency                    20 # smem Latency
-gpgpu_cache:dl1PrefL1                 none # per-shader L1 data cache config  {<nsets>:<bsize>:<assoc>,<rep>:<wr>:<alloc>:<wr_alloc>,<mshr>:<N>:<merge>,<mq> | none}
-gpgpu_cache:dl1PrefShared                 none # per-shader L1 data cache config  {<nsets>:<bsize>:<assoc>,<rep>:<wr>:<alloc>:<wr_alloc>,<mshr>:<N>:<merge>,<mq> | none}
-gpgpu_gmem_skip_L1D                    0 # global memory access skip L1D cache (implements -Xptxas -dlcm=cg, default=no skip)
-gpgpu_perfect_mem                      0 # enable perfect memory mode (no cache miss)
-n_regfile_gating_group                    4 # group of lanes that should be read/written together)
-gpgpu_clock_gated_reg_file                    0 # enable clock gated reg file for power calculations
-gpgpu_clock_gated_lanes                    0 # enable clock gated lanes for power calculations
-gpgpu_shader_registers                65536 # Number of registers per shader core. Limits number of concurrent CTAs. (default 8192)
-gpgpu_registers_per_block                65536 # Maximum number of registers per CTA. (default 8192)
-gpgpu_ignore_resources_limitation                    0 # gpgpu_ignore_resources_limitation (default 0)
-gpgpu_shader_cta                      32 # Maximum number of concurrent CTAs in shader (default 8)
-gpgpu_num_cta_barriers                   16 # Maximum number of named barriers per CTA (default 16)
-gpgpu_n_clusters                      80 # number of processing clusters
-gpgpu_n_cores_per_cluster                    1 # number of simd cores per cluster
-gpgpu_n_cluster_ejection_buffer_size                   32 # number of packets in ejection buffer
-gpgpu_n_ldst_response_buffer_size                    2 # number of response packets in ld/st unit ejection buffer
-gpgpu_shmem_per_block                65536 # Size of shared memory per thread block or CTA (default 48kB)
-gpgpu_shmem_size                   98304 # Size of shared memory per shader core (default 16kB)
-gpgpu_adaptive_cache_config            536870913 # adaptive_cache_config
-gpgpu_shmem_sizeDefault                98304 # Size of shared memory per shader core (default 16kB)
-gpgpu_shmem_size_PrefL1                16384 # Size of shared memory per shader core (default 16kB)
-gpgpu_shmem_size_PrefShared                16384 # Size of shared memory per shader core (default 16kB)
-gpgpu_shmem_num_banks                   32 # Number of banks in the shared memory in each shader core (default 16)
-gpgpu_shmem_limited_broadcast                    0 # Limit shared memory to do one broadcast per cycle (default on)
-gpgpu_shmem_warp_parts                    1 # Number of portions a warp is divided into for shared memory bank conflict check 
-gpgpu_mem_unit_ports                    1 # The number of memory transactions allowed per core cycle
-gpgpu_shmem_warp_parts                    1 # Number of portions a warp is divided into for shared memory bank conflict check 
-gpgpu_warpdistro_shader                   -1 # Specify which shader core to collect the warp size distribution from
-gpgpu_warp_issue_shader                    0 # Specify which shader core to collect the warp issue distribution from
-gpgpu_local_mem_map                    1 # Mapping from local memory space address to simulated GPU physical address space (default = enabled)
-gpgpu_num_reg_banks                   16 # Number of register banks (default = 8)
-gpgpu_reg_bank_use_warp_id                    0 # Use warp ID in mapping registers to banks (default = off)
-gpgpu_sub_core_model                    1 # Sub Core Volta/Pascal model (default = off)
-gpgpu_enable_specialized_operand_collector                    0 # enable_specialized_operand_collector
-gpgpu_operand_collector_num_units_sp                    4 # number of collector units (default = 4)
-gpgpu_operand_collector_num_units_dp                    0 # number of collector units (default = 0)
-gpgpu_operand_collector_num_units_sfu                    4 # number of collector units (default = 4)
-gpgpu_operand_collector_num_units_int                    0 # number of collector units (default = 0)
-gpgpu_operand_collector_num_units_tensor_core                    4 # number of collector units (default = 4)
-gpgpu_operand_collector_num_units_mem                    2 # number of collector units (default = 2)
-gpgpu_operand_collector_num_units_gen                    8 # number of collector units (default = 0)
-gpgpu_operand_collector_num_in_ports_sp                    1 # number of collector unit in ports (default = 1)
-gpgpu_operand_collector_num_in_ports_dp                    0 # number of collector unit in ports (default = 0)
-gpgpu_operand_collector_num_in_ports_sfu                    1 # number of collector unit in ports (default = 1)
-gpgpu_operand_collector_num_in_ports_int                    0 # number of collector unit in ports (default = 0)
-gpgpu_operand_collector_num_in_ports_tensor_core                    1 # number of collector unit in ports (default = 1)
-gpgpu_operand_collector_num_in_ports_mem                    1 # number of collector unit in ports (default = 1)
-gpgpu_operand_collector_num_in_ports_gen                    8 # number of collector unit in ports (default = 0)
-gpgpu_operand_collector_num_out_ports_sp                    1 # number of collector unit in ports (default = 1)
-gpgpu_operand_collector_num_out_ports_dp                    0 # number of collector unit in ports (default = 0)
-gpgpu_operand_collector_num_out_ports_sfu                    1 # number of collector unit in ports (default = 1)
-gpgpu_operand_collector_num_out_ports_int                    0 # number of collector unit in ports (default = 0)
-gpgpu_operand_collector_num_out_ports_tensor_core                    1 # number of collector unit in ports (default = 1)
-gpgpu_operand_collector_num_out_ports_mem                    1 # number of collector unit in ports (default = 1)
-gpgpu_operand_collector_num_out_ports_gen                    8 # number of collector unit in ports (default = 0)
-gpgpu_coalesce_arch                   60 # Coalescing arch (GT200 = 13, Fermi = 20)
-gpgpu_num_sched_per_core                    4 # Number of warp schedulers per core
-gpgpu_max_insn_issue_per_warp                    1 # Max number of instructions that can be issued per warp in one cycle by scheduler (either 1 or 2)
-gpgpu_dual_issue_diff_exec_units                    1 # should dual issue use two different execution unit resources (Default = 1)
-gpgpu_simt_core_sim_order                    1 # Select the simulation order of cores in a cluster (0=Fix, 1=Round-Robin)
-gpgpu_pipeline_widths 4,4,4,4,4,4,4,4,4,4,8,4,4 # Pipeline widths ID_OC_SP,ID_OC_DP,ID_OC_INT,ID_OC_SFU,ID_OC_MEM,OC_EX_SP,OC_EX_DP,OC_EX_INT,OC_EX_SFU,OC_EX_MEM,EX_WB,ID_OC_TENSOR_CORE,OC_EX_TENSOR_CORE
-gpgpu_tensor_core_avail                    1 # Tensor Core Available (default=0)
-gpgpu_num_sp_units                     4 # Number of SP units (default=1)
-gpgpu_num_dp_units                     4 # Number of DP units (default=0)
-gpgpu_num_int_units                    4 # Number of INT units (default=0)
-gpgpu_num_sfu_units                    4 # Number of SF units (default=1)
-gpgpu_num_tensor_core_units                    4 # Number of tensor_core units (default=1)
-gpgpu_num_mem_units                    1 # Number if ldst units (default=1) WARNING: not hooked up to anything
-gpgpu_scheduler                      gto # Scheduler configuration: < lrr | gto | two_level_active > If two_level_active:<num_active_warps>:<inner_prioritization>:<outer_prioritization>For complete list of prioritization values see shader.h enum scheduler_prioritization_typeDefault: gto
-gpgpu_concurrent_kernel_sm                    0 # Support concurrent kernels on a SM (default = disabled)
-gpgpu_perfect_inst_const_cache                    1 # perfect inst and const cache mode, so all inst and const hits in the cache(default = disabled)
-gpgpu_inst_fetch_throughput                    4 # the number of fetched intruction per warp each cycle
-gpgpu_reg_file_port_throughput                    2 # the number ports of the register file
-specialized_unit_1         0,4,4,4,4,BRA # specialized unit config {<enabled>,<num_units>:<latency>:<initiation>,<ID_OC_SPEC>:<OC_EX_SPEC>,<NAME>}
-specialized_unit_2         0,4,4,4,4,BRA # specialized unit config {<enabled>,<num_units>:<latency>:<initiation>,<ID_OC_SPEC>:<OC_EX_SPEC>,<NAME>}
-specialized_unit_3         0,4,4,4,4,BRA # specialized unit config {<enabled>,<num_units>:<latency>:<initiation>,<ID_OC_SPEC>:<OC_EX_SPEC>,<NAME>}
-specialized_unit_4         0,4,4,4,4,BRA # specialized unit config {<enabled>,<num_units>:<latency>:<initiation>,<ID_OC_SPEC>:<OC_EX_SPEC>,<NAME>}
-specialized_unit_5         0,4,4,4,4,BRA # specialized unit config {<enabled>,<num_units>:<latency>:<initiation>,<ID_OC_SPEC>:<OC_EX_SPEC>,<NAME>}
-specialized_unit_6         0,4,4,4,4,BRA # specialized unit config {<enabled>,<num_units>:<latency>:<initiation>,<ID_OC_SPEC>:<OC_EX_SPEC>,<NAME>}
-specialized_unit_7         0,4,4,4,4,BRA # specialized unit config {<enabled>,<num_units>:<latency>:<initiation>,<ID_OC_SPEC>:<OC_EX_SPEC>,<NAME>}
-specialized_unit_8         0,4,4,4,4,BRA # specialized unit config {<enabled>,<num_units>:<latency>:<initiation>,<ID_OC_SPEC>:<OC_EX_SPEC>,<NAME>}
-gpgpu_perf_sim_memcpy                    1 # Fill the L2 cache on memcpy
-gpgpu_simple_dram_model                    0 # simple_dram_model with fixed latency and BW
-gpgpu_dram_scheduler                    1 # 0 = fifo, 1 = FR-FCFS (defaul)
-gpgpu_dram_partition_queues          64:64:64:64 # i2$:$2d:d2$:$2i
-l2_ideal                               0 # Use a ideal L2 cache that always hit
-gpgpu_cache:dl2     S:32:128:24,L:B:m:L:P,A:192:4,32:0,32 # unified banked L2 data cache config  {<nsets>:<bsize>:<assoc>,<rep>:<wr>:<alloc>:<wr_alloc>,<mshr>:<N>:<merge>,<mq>}
-gpgpu_cache:dl2_texture_only                    0 # L2 cache used for texture only
-gpgpu_n_mem                           32 # number of memory modules (e.g. memory controllers) in gpu
-gpgpu_n_sub_partition_per_mchannel                    2 # number of memory subpartition in each memory module
-gpgpu_n_mem_per_ctrlr                    1 # number of memory chips per memory controller
-gpgpu_memlatency_stat                   14 # track and display latency statistics 0x2 enables MC, 0x4 enables queue logs
-gpgpu_frfcfs_dram_sched_queue_size                   64 # 0 = unlimited (default); # entries per chip
-gpgpu_dram_return_queue_size                  192 # 0 = unlimited (default); # entries per chip
-gpgpu_dram_buswidth                   16 # default = 4 bytes (8 bytes per cycle at DDR)
-gpgpu_dram_burst_length                    2 # Burst length of each DRAM request (default = 4 data bus cycle)
-dram_data_command_freq_ratio                    2 # Frequency ratio between DRAM data bus and command bus (default = 2 times, i.e. DDR)
-gpgpu_dram_timing_opt nbk=16:CCD=1:RRD=3:RCD=12:RAS=28:RP=12:RC=40: CL=12:WL=2:CDLR=3:WR=10:nbkgrp=4:CCDL=2:RTPL=3 # DRAM timing parameters = {nbk:tCCD:tRRD:tRCD:tRAS:tRP:tRC:CL:WL:tCDLR:tWR:nbkgrp:tCCDL:tRTPL}
-gpgpu_l2_rop_latency                  160 # ROP queue latency (default 85)
-dram_latency                         200 # DRAM latency (default 30)
-dram_write_latency                   600 # DRAM write latency (default 100)
-dram_dual_bus_interface                    1 # dual_bus_interface (default = 0) 
-dram_bnk_indexing_policy                    0 # dram_bnk_indexing_policy (0 = normal indexing, 1 = Xoring with the higher bits) (Default = 0)
-dram_bnkgrp_indexing_policy                    1 # dram_bnkgrp_indexing_policy (0 = take higher bits, 1 = take lower bits) (Default = 0)
-dram_seperate_write_queue_enable                    0 # Seperate_Write_Queue_Enable
-dram_write_queue_size             32:28:16 # Write_Queue_Size
-dram_elimnate_rw_turnaround                    0 # elimnate_rw_turnaround i.e set tWTR and tRTW = 0
-icnt_flit_size                        40 # icnt_flit_size
-gpgpu_mem_addr_mapping dramid@8;00000000.00000000.00000000.00000000.0000RRRR.RRRRRRRR.RBBBCCCB.CCCSSSSS # mapping memory address to dram model {dramid@<start bit>;<memory address map>}
-gpgpu_mem_addr_test                    0 # run sweep test to check address mapping for aliased address
-gpgpu_mem_address_mask                    1 # 0 = old addressing mask, 1 = new addressing mask, 2 = new add. mask + flipped bank sel and chip sel bits
-gpgpu_memory_partition_indexing                    0 # 0 = no indexing, 1 = bitwise xoring, 2 = IPoly, 3 = custom indexing
-gpuwattch_xml_file         gpuwattch.xml # GPUWattch XML file
-power_simulation_enabled                    0 # Turn on power simulator (1=On, 0=Off)
-power_per_cycle_dump                    0 # Dump detailed power output each cycle
-power_trace_enabled                    0 # produce a file for the power trace (1=On, 0=Off)
-power_trace_zlevel                     6 # Compression level of the power trace output log (0=no comp, 9=highest)
-steady_power_levels_enabled                    0 # produce a file for the steady power levels (1=On, 0=Off)
-steady_state_definition                  8:4 # allowed deviation:number of samples
-gpgpu_max_cycle                        0 # terminates gpu simulation early (0 = no limit)
-gpgpu_max_insn                         0 # terminates gpu simulation early (0 = no limit)
-gpgpu_max_cta                          0 # terminates gpu simulation early (0 = no limit)
-gpgpu_max_completed_cta                 2048 # terminates gpu simulation early (0 = no limit)
-gpgpu_runtime_stat                   500 # display runtime statistics such as dram utilization {<freq>:<flag>}
-liveness_message_freq                    1 # Minimum number of seconds between simulation liveness messages (0 = always print)
-gpgpu_compute_capability_major                    7 # Major compute capability version number
-gpgpu_compute_capability_minor                    0 # Minor compute capability version number
-gpgpu_flush_l1_cache                    1 # Flush L1 cache at the end of each kernel call
-gpgpu_flush_l2_cache                    0 # Flush L2 cache at the end of each kernel call
-gpgpu_deadlock_detect                    1 # Stop the simulation at deadlock (1=on (default), 0=off)
-gpgpu_ptx_instruction_classification                    0 # if enabled will classify ptx instruction types per kernel (Max 255 kernels now)
-gpgpu_ptx_sim_mode                     0 # Select between Performance (default) or Functional simulation (1)
-gpgpu_clock_domains 1132.0:1132.0:1132.0:850.0 # Clock Domain Frequencies in MhZ {<Core Clock>:<ICNT Clock>:<L2 Clock>:<DRAM Clock>}
-gpgpu_max_concurrent_kernel                    8 # maximum kernels that can run concurrently on GPU
-gpgpu_cflog_interval                    0 # Interval between each snapshot in control flow logger
-visualizer_enabled               ef36522e2d45247004aa03edb85bd63f  /home/pli11/Videos/parboil_benchmark/parboil/benchmarks/stencil/build/nvm_default/stencil
Extracting PTX file and ptxas options    1: stencil.1.sm_70.ptx -arch=sm_70
      0 # Turn on visualizer output (1=On, 0=Off)
-visualizer_outputfile                 NULL # Specifies the output log file for visualizer
-visualizer_zlevel                      6 # Compression level of the visualizer output log (0=no comp, 9=highest)
-gpgpu_stack_size_limit                 1024 # GPU thread stack size
-gpgpu_heap_size_limit              8388608 # GPU malloc heap size 
-gpgpu_runtime_sync_depth_limit                    2 # GPU device runtime synchronize depth
-gpgpu_runtime_pending_launch_count_limit                 2048 # GPU device runtime pending launch count
-trace_enabled                          0 # Turn on traces
-trace_components                    none # comma seperated list of traces to enable. Complete list found in trace_streams.tup. Default none
-trace_sampling_core                    0 # The core which is printed using CORE_DPRINTF. Default 0
-trace_sampling_memory_partition                   -1 # The memory partition which is printed using MEMPART_DPRINTF. Default -1 (i.e. all)
-enable_ptx_file_line_stats                    1 # Turn on PTX source line statistic profiling. (1 = On)
-ptx_line_stats_filename gpgpu_inst_stats.txt # Output file for PTX source line statistics.
-gpgpu_kernel_launch_latency                 5000 # Kernel launch latency in cycles. Default: 0
-gpgpu_cdp_enabled                      0 # Turn on CDP
-gpgpu_TB_launch_latency                    0 # thread block launch latency in cycles. Default: 0
DRAM Timing Options:
nbk                                    16 # number of banks
CCD                                     1 # column to column delay
RRD                                     3 # minimal delay between activation of rows in different banks
RCD                                    12 # row to column delay
RAS                                    28 # time needed to activate row
RP                                     12 # time needed to precharge (deactivate) row
RC                                     40 # row cycle time
CDLR                                    3 # switching from write to read (changes tWTR)
WR                                     10 # last data-in to row precharge
CL                                     12 # CAS latency
WL                                      2 # Write latency
nbkgrp                                  4 # number of bank groups
CCDL                                    2 # column to column delay between accesses to different bank groups
RTPL                                    3 # read to precharge delay between accesses to different bank groups
Total number of memory sub partition = 64
addr_dec_mask[CHIP]  = 0000000000001f00 	high:13 low:8
addr_dec_mask[BK]    = 00000000000e2000 	high:20 low:13
addr_dec_mask[ROW]   = 00000001fff00000 	high:33 low:20
addr_dec_mask[COL]   = 000000000001c0ff 	high:17 low:0
addr_dec_mask[BURST] = 000000000000001f 	high:5 low:0
sub_partition_id_mask = 0000000000002000
GPGPU-Sim uArch: clock freqs: 1132000000.000000:1132000000.000000:1132000000.000000:850000000.000000
GPGPU-Sim uArch: clock periods: 0.00000000088339222615:0.00000000088339222615:0.00000000088339222615:0.00000000117647058824
*** Initializing Memory Statistics ***
GPGPU-Sim uArch: performance model initialization complete.
self exe links to: /home/pli11/Videos/parboil_benchmark/parboil/benchmarks/stencil/build/nvm_default/stencil
self exe links to: /home/pli11/Videos/parboil_benchmark/parboil/benchmarks/stencil/build/nvm_default/stencil
10.1
GPGPU-Sim PTX: __cudaRegisterFatBinary, fat_cubin_handle = 1, filename=default
self exe links to: /home/pli11/Videos/parboil_benchmark/parboil/benchmarks/stencil/build/nvm_default/stencil
Running md5sum using "md5sum /home/pli11/Videos/parboil_benchmark/parboil/benchmarks/stencil/build/nvm_default/stencil "
self exe links to: /home/pli11/Videos/parboil_benchmark/parboil/benchmarks/stencil/build/nvm_default/stencil
Extracting specific PTX file named stencil.1.sm_70.ptx 
GPGPU-Sim PTX: __cudaRegisterFunction _Z17naive_kernel_nvm5ffPfS_iii : hostFun 0x0x403527, fat_cubin_handle = 1
GPGPU-Sim PTX: Parsing stencil.1.sm_70.ptx
GPGPU-Sim PTX: allocating global region for "NVM_log" from 0x100 to 0x4000100 (global memory space)
GPGPU-Sim PTX: allocating global region for "NVM_flag" from 0x4000100 to 0x4400100 (global memory space)
GPGPU-Sim PTX: instruction assembly for function '_Z12naive_kernelffPfS_iii'...   done.
GPGPU-Sim PTX: instruction assembly for function '_Z17naive_kernel_nvmbffPfS_iii'...   done.
GPGPU-Sim PTX: instruction assembly for function '_Z17naive_kernel_nvmoffPfS_iii'...   done.
GPGPU-Sim PTX: instruction assembly for function '_Z17naive_kernel_nvmuffPfS_iii'...   done.
GPGPU-Sim PTX: instruction assembly for function '_Z17naive_kernel_nvm1ffPfS_iii'...   done.
GPGPU-Sim PTX: instruction assembly for function '_Z17naive_kernel_nvm2ffPfS_iii'...   done.
GPGPU-Sim PTX: instruction assembly for function '_Z17naive_kernel_nvmgffPfS_iii'...   done.
GPGPU-Sim PTX: instruction assembly for function '_Z17naive_kernel_nvm3ffPfS_iii'...   done.
GPGPU-Sim PTX: instruction assembly for function '_Z17naive_kernel_nvm4ffPfS_iii'...   done.
GPGPU-Sim PTX: instruction assembly for function '_Z17naive_kernel_nvmiffPfS_iii'...   done.
GPGPU-Sim PTX: instruction assembly for function '_Z17naive_kernel_nvm6ffPfS_iii'...   done.
GPGPU-Sim PTX: instruction assembly for function '_Z17naive_kernel_nvm5ffPfS_iii'...   done.
GPGPU-Sim PTX: finished parsing EMBEDDED .ptx file stencil.1.sm_70.ptx
GPGPU-Sim PTX: loading globals with explicit initializers... 
GPGPU-Sim PTX: finished loading globals (0 bytes total).
GPGPU-Sim PTX: loading constants with explicit initializers...  done.
GPGPU-Sim PTX: Loading PTXInfo from stencil.1.sm_70.ptx
GPGPU-Sim PTX: Kernel '_Z17naive_kernel_nvm5ffPfS_iii' : regs=21, lmem=0, smem=0, cmem=388
GPGPU-Sim PTX: Kernel '_Z17naive_kernel_nvm6ffPfS_iii' : regs=21, lmem=0, smem=0, cmem=388
GPGPU-Sim PTX: Kernel '_Z17naive_kernel_nvmiffPfS_iii' : regs=21, lmem=0, smem=0, cmem=388
GPGPU-Sim PTX: Kernel '_Z17naive_kernel_nvm4ffPfS_iii' : regs=23, lmem=0, smem=0, cmem=388
GPGPU-Sim PTX: Kernel '_Z17naive_kernel_nvm3ffPfS_iii' : regs=23, lmem=0, smem=0, cmem=388
GPGPU-Sim PTX: Kernel '_Z17naive_kernel_nvmgffPfS_iii' : regs=23, lmem=0, smem=0, cmem=388
GPGPU-Sim PTX: Kernel '_Z17naive_kernel_nvm2ffPfS_iii' : regs=22, lmem=0, smem=0, cmem=388
GPGPU-Sim PTX: Kernel '_Z17naive_kernel_nvm1ffPfS_iii' : regs=22, lmem=0, smem=0, cmem=388
GPGPU-Sim PTX: Kernel '_Z17naive_kernel_nvmuffPfS_iii' : regs=20, lmem=0, smem=0, cmem=388
GPGPU-Sim PTX: Kernel '_Z17naive_kernel_nvmoffPfS_iii' : regs=20, lmem=0, smem=0, cmem=388
GPGPU-Sim PTX: Kernel '_Z17naive_kernel_nvmbffPfS_iii' : regs=20, lmem=0, smem=0, cmem=388
GPGPU-Sim PTX: Kernel '_Z12naive_kernelffPfS_iii' : regs=20, lmem=0, smem=0, cmem=388
GPGPU-Sim PTX: __cudaRegisterFunction _Z17naive_kernel_nvm6ffPfS_iii : hostFun 0x0x40332e, fat_cubin_handle = 1
GPGPU-Sim PTX: __cudaRegisterFunction _Z17naive_kernel_nvmiffPfS_iii : hostFun 0x0x403135, fat_cubin_handle = 1
GPGPU-Sim PTX: __cudaRegisterFunction _Z17naive_kernel_nvm4ffPfS_iii : hostFun 0x0x402f3c, fat_cubin_handle = 1
GPGPU-Sim PTX: __cudaRegisterFunction _Z17naive_kernel_nvm3ffPfS_iii : hostFun 0x0x402d43, fat_cubin_handle = 1
GPGPU-Sim PTX: __cudaRegisterFunction _Z17naive_kernel_nvmgffPfS_iii : hostFun 0x0x402b4a, fat_cubin_handle = 1
GPGPU-Sim PTX: __cudaRegisterFunction _Z17naive_kernel_nvm2ffPfS_iii : hostFun 0x0x402951, fat_cubin_handle = 1
GPGPU-Sim PTX: __cudaRegisterFunction _Z17naive_kernel_nvm1ffPfS_iii : hostFun 0x0x402758, fat_cubin_handle = 1
GPGPU-Sim PTX: __cudaRegisterFunction _Z17naive_kernel_nvmuffPfS_iii : hostFun 0x0x40255f, fat_cubin_handle = 1
GPGPU-Sim PTX: __cudaRegisterFunction _Z17naive_kernel_nvmoffPfS_iii : hostFun 0x0x402366, fat_cubin_handle = 1
GPGPU-Sim PTX: __cudaRegisterFunction _Z17naive_kernel_nvmbffPfS_iii : hostFun 0x0x40216d, fat_cubin_handle = 1
GPGPU-Sim PTX: __cudaRegisterFunction _Z12naive_kernelffPfS_iii : hostFun 0x0x401f74, fat_cubin_handle = 1
GPGPU-Sim PTX: __cudaRegisterVar: hostVar = 0x6091c0; deviceAddress = NVM_log; deviceName = NVM_log
GPGPU-Sim PTX: __cudaRegisterVar: Registering const memory space of 67108864 bytes
GPGPU-Sim PTX registering global NVM_log hostVar to name mapping
GPGPU-Sim PTX: __cudaRegisterVar: hostVar = 0x46091c0; deviceAddress = NVM_flag; deviceName = NVM_flag
GPGPU-Sim PTX: __cudaRegisterVar: Registering const memory space of 4194304 bytes
GPGPU-Sim PTX registering global NVM_flag hostVar to name mapping
CUDA accelerated 7 points stencil codes****
Original version by Li-Wen Chang <lchang20@illinois.edu> and I-Jui Sung<sung10@illinois.edu>
This version maintained by Chris Rodrigues  ***********
GPGPU-Sim: synchronize waiting for inactive GPU simulation
GPGPU-Sim API: Stream Manager State
GPGPU-Sim: detected inactive GPU simulation thread
event update
GPGPU-Sim: synchronize waiting for inactive GPU simulation
GPGPU-Sim API: Stream Manager State
GPGPU-Sim: detected inactive GPU simulation thread
GPGPU-Sim PTX: Setting up arguments for 4 bytes starting at 0x7fff37b34adc..
GPGPU-Sim PTX: Setting up arguments for 4 bytes starting at 0x7fff37b34ad8..
GPGPU-Sim PTX: Setting up arguments for 8 bytes starting at 0x7fff37b34ad0..
GPGPU-Sim PTX: Setting up arguments for 8 bytes starting at 0x7fff37b34ac8..
GPGPU-Sim PTX: Setting up arguments for 4 bytes starting at 0x7fff37b34ac4..
GPGPU-Sim PTX: Setting up arguments for 4 bytes starting at 0x7fff37b34ac0..
GPGPU-Sim PTX: Setting up arguments for 4 bytes starting at 0x7fff37b34abc..

GPGPU-Sim PTX: cudaLaunch for 0x0x40216d (mode=performance simulation) on stream 0
GPGPU-Sim PTX: finding reconvergence points for '_Z17naive_kernel_nvmbffPfS_iii'...
GPGPU-Sim PTX: Finding dominators for '_Z17naive_kernel_nvmbffPfS_iii'...
GPGPU-Sim PTX: Finding immediate dominators for '_Z17naive_kernel_nvmbffPfS_iii'...
GPGPU-Sim PTX: Finding postdominators for '_Z17naive_kernel_nvmbffPfS_iii'...
GPGPU-Sim PTX: Finding immediate postdominators for '_Z17naive_kernel_nvmbffPfS_iii'...
GPGPU-Sim PTX: pre-decoding instructions for '_Z17naive_kernel_nvmbffPfS_iii'...
GPGPU-Sim PTX: reconvergence points for _Z17naive_kernel_nvmbffPfS_iii...
GPGPU-Sim PTX:  1 (potential) branch divergence @  PC=0x1f8 (stencil.1.sm_70.ptx:118) @%p1 bra BB1_2;
GPGPU-Sim PTX:    immediate post dominator      @  PC=0x368 (stencil.1.sm_70.ptx:171) ret;
GPGPU-Sim PTX: ... end of reconvergence points for _Z17naive_kernel_nvmbffPfS_iii
GPGPU-Sim PTX: ... done pre-decoding instructions for '_Z17naive_kernel_nvmbffPfS_iii'.
GPGPU-Sim PTX: pushing kernel '_Z17naive_kernel_nvmbffPfS_iii' to stream 0, gridDim= (510,62,1) blockDim = (511,1,1) 
GPGPU-Sim uArch: Shader 0 bind to kernel 1 '_Z17naive_kernel_nvmbffPfS_iii'
GPGPU-Sim uArch: CTA/core = 4, limited by: threads
GPGPU-Sim: Reconfigure L1 cache to 128KB
GPGPU-Sim uArch: Shader 1 bind to kernel 1 '_Z17naive_kernel_nvmbffPfS_iii'
GPGPU-Sim uArch: Shader 2 bind to kernel 1 '_Z17naive_kernel_nvmbffPfS_iii'
GPGPU-Sim uArch: Shader 3 bind to kernel 1 '_Z17naive_kernel_nvmbffPfS_iii'
GPGPU-Sim uArch: Shader 4 bind to kernel 1 '_Z17naive_kernel_nvmbffPfS_iii'
GPGPU-Sim uArch: Shader 5 bind to kernel 1 '_Z17naive_kernel_nvmbffPfS_iii'
GPGPU-Sim uArch: Shader 6 bind to kernel 1 '_Z17naive_kernel_nvmbffPfS_iii'
GPGPU-Sim uArch: Shader 7 bind to kernel 1 '_Z17naive_kernel_nvmbffPfS_iii'
GPGPU-Sim uArch: Shader 8 bind to kernel 1 '_Z17naive_kernel_nvmbffPfS_iii'
GPGPU-Sim uArch: Shader 9 bind to kernel 1 '_Z17naive_kernel_nvmbffPfS_iii'
GPGPU-Sim uArch: Shader 10 bind to kernel 1 '_Z17naive_kernel_nvmbffPfS_iii'
GPGPU-Sim uArch: Shader 11 bind to kernel 1 '_Z17naive_kernel_nvmbffPfS_iii'
GPGPU-Sim uArch: Shader 12 bind to kernel 1 '_Z17naive_kernel_nvmbffPfS_iii'
GPGPU-Sim uArch: Shader 13 bind to kernel 1 '_Z17naive_kernel_nvmbffPfS_iii'
GPGPU-Sim uArch: Shader 14 bind to kernel 1 '_Z17naive_kernel_nvmbffPfS_iii'
GPGPU-Sim uArch: Shader 15 bind to kernel 1 '_Z17naive_kernel_nvmbffPfS_iii'
GPGPU-Sim uArch: Shader 16 bind to kernel 1 '_Z17naive_kernel_nvmbffPfS_iii'
GPGPU-Sim uArch: Shader 17 bind to kernel 1 '_Z17naive_kernel_nvmbffPfS_iii'
GPGPU-Sim uArch: Shader 18 bind to kernel 1 '_Z17naive_kernel_nvmbffPfS_iii'
GPGPU-Sim uArch: Shader 19 bind to kernel 1 '_Z17naive_kernel_nvmbffPfS_iii'
GPGPU-Sim uArch: Shader 20 bind to kernel 1 '_Z17naive_kernel_nvmbffPfS_iii'
GPGPU-Sim uArch: Shader 21 bind to kernel 1 '_Z17naive_kernel_nvmbffPfS_iii'
GPGPU-Sim uArch: Shader 22 bind to kernel 1 '_Z17naive_kernel_nvmbffPfS_iii'
GPGPU-Sim uArch: Shader 23 bind to kernel 1 '_Z17naive_kernel_nvmbffPfS_iii'
GPGPU-Sim uArch: Shader 24 bind to kernel 1 '_Z17naive_kernel_nvmbffPfS_iii'
GPGPU-Sim uArch: Shader 25 bind to kernel 1 '_Z17naive_kernel_nvmbffPfS_iii'
GPGPU-Sim uArch: Shader 26 bind to kernel 1 '_Z17naive_kernel_nvmbffPfS_iii'
GPGPU-Sim uArch: Shader 27 bind to kernel 1 '_Z17naive_kernel_nvmbffPfS_iii'
GPGPU-Sim uArch: Shader 28 bind to kernel 1 '_Z17naive_kernel_nvmbffPfS_iii'
GPGPU-Sim uArch: Shader 29 bind to kernel 1 '_Z17naive_kernel_nvmbffPfS_iii'
GPGPU-Sim uArch: Shader 30 bind to kernel 1 '_Z17naive_kernel_nvmbffPfS_iii'
GPGPU-Sim uArch: Shader 31 bind to kernel 1 '_Z17naive_kernel_nvmbffPfS_iii'
GPGPU-Sim uArch: Shader 32 bind to kernel 1 '_Z17naive_kernel_nvmbffPfS_iii'
GPGPU-Sim uArch: Shader 33 bind to kernel 1 '_Z17naive_kernel_nvmbffPfS_iii'
GPGPU-Sim uArch: Shader 34 bind to kernel 1 '_Z17naive_kernel_nvmbffPfS_iii'
GPGPU-Sim uArch: Shader 35 bind to kernel 1 '_Z17naive_kernel_nvmbffPfS_iii'
GPGPU-Sim uArch: Shader 36 bind to kernel 1 '_Z17naive_kernel_nvmbffPfS_iii'
GPGPU-Sim uArch: Shader 37 bind to kernel 1 '_Z17naive_kernel_nvmbffPfS_iii'
GPGPU-Sim uArch: Shader 38 bind to kernel 1 '_Z17naive_kernel_nvmbffPfS_iii'
GPGPU-Sim uArch: Shader 39 bind to kernel 1 '_Z17naive_kernel_nvmbffPfS_iii'
GPGPU-Sim uArch: Shader 40 bind to kernel 1 '_Z17naive_kernel_nvmbffPfS_iii'
GPGPU-Sim uArch: Shader 41 bind to kernel 1 '_Z17naive_kernel_nvmbffPfS_iii'
GPGPU-Sim uArch: Shader 42 bind to kernel 1 '_Z17naive_kernel_nvmbffPfS_iii'
GPGPU-Sim uArch: Shader 43 bind to kernel 1 '_Z17naive_kernel_nvmbffPfS_iii'
GPGPU-Sim uArch: Shader 44 bind to kernel 1 '_Z17naive_kernel_nvmbffPfS_iii'
GPGPU-Sim uArch: Shader 45 bind to kernel 1 '_Z17naive_kernel_nvmbffPfS_iii'
GPGPU-Sim uArch: Shader 46 bind to kernel 1 '_Z17naive_kernel_nvmbffPfS_iii'
GPGPU-Sim uArch: Shader 47 bind to kernel 1 '_Z17naive_kernel_nvmbffPfS_iii'
GPGPU-Sim uArch: Shader 48 bind to kernel 1 '_Z17naive_kernel_nvmbffPfS_iii'
GPGPU-Sim uArch: Shader 49 bind to kernel 1 '_Z17naive_kernel_nvmbffPfS_iii'
GPGPU-Sim uArch: Shader 50 bind to kernel 1 '_Z17naive_kernel_nvmbffPfS_iii'
GPGPU-Sim uArch: Shader 51 bind to kernel 1 '_Z17naive_kernel_nvmbffPfS_iii'
GPGPU-Sim uArch: Shader 52 bind to kernel 1 '_Z17naive_kernel_nvmbffPfS_iii'
GPGPU-Sim uArch: Shader 53 bind to kernel 1 '_Z17naive_kernel_nvmbffPfS_iii'
GPGPU-Sim uArch: Shader 54 bind to kernel 1 '_Z17naive_kernel_nvmbffPfS_iii'
GPGPU-Sim uArch: Shader 55 bind to kernel 1 '_Z17naive_kernel_nvmbffPfS_iii'
GPGPU-Sim uArch: Shader 56 bind to kernel 1 '_Z17naive_kernel_nvmbffPfS_iii'
GPGPU-Sim uArch: Shader 57 bind to kernel 1 '_Z17naive_kernel_nvmbffPfS_iii'
GPGPU-Sim uArch: Shader 58 bind to kernel 1 '_Z17naive_kernel_nvmbffPfS_iii'
GPGPU-Sim uArch: Shader 59 bind to kernel 1 '_Z17naive_kernel_nvmbffPfS_iii'
GPGPU-Sim uArch: Shader 60 bind to kernel 1 '_Z17naive_kernel_nvmbffPfS_iii'
GPGPU-Sim uArch: Shader 61 bind to kernel 1 '_Z17naive_kernel_nvmbffPfS_iii'
GPGPU-Sim uArch: Shader 62 bind to kernel 1 '_Z17naive_kernel_nvmbffPfS_iii'
GPGPU-Sim uArch: Shader 63 bind to kernel 1 '_Z17naive_kernel_nvmbffPfS_iii'
GPGPU-Sim uArch: Shader 64 bind to kernel 1 '_Z17naive_kernel_nvmbffPfS_iii'
GPGPU-Sim uArch: Shader 65 bind to kernel 1 '_Z17naive_kernel_nvmbffPfS_iii'
GPGPU-Sim uArch: Shader 66 bind to kernel 1 '_Z17naive_kernel_nvmbffPfS_iii'
GPGPU-Sim uArch: Shader 67 bind to kernel 1 '_Z17naive_kernel_nvmbffPfS_iii'
GPGPU-Sim uArch: Shader 68 bind to kernel 1 '_Z17naive_kernel_nvmbffPfS_iii'
GPGPU-Sim uArch: Shader 69 bind to kernel 1 '_Z17naive_kernel_nvmbffPfS_iii'
GPGPU-Sim uArch: Shader 70 bind to kernel 1 '_Z17naive_kernel_nvmbffPfS_iii'
GPGPU-Sim uArch: Shader 71 bind to kernel 1 '_Z17naive_kernel_nvmbffPfS_iii'
GPGPU-Sim uArch: Shader 72 bind to kernel 1 '_Z17naive_kernel_nvmbffPfS_iii'
GPGPU-Sim uArch: Shader 73 bind to kernel 1 '_Z17naive_kernel_nvmbffPfS_iii'
GPGPU-Sim uArch: Shader 74 bind to kernel 1 '_Z17naive_kernel_nvmbffPfS_iii'
GPGPU-Sim uArch: Shader 75 bind to kernel 1 '_Z17naive_kernel_nvmbffPfS_iii'
GPGPU-Sim uArch: Shader 76 bind to kernel 1 '_Z17naive_kernel_nvmbffPfS_iii'
GPGPU-Sim uArch: Shader 77 bind to kernel 1 '_Z17naive_kernel_nvmbffPfS_iii'
GPGPU-Sim uArch: Shader 78 bind to kernel 1 '_Z17naive_kernel_nvmbffPfS_iii'
GPGPU-Sim uArch: Shader 79 bind to kernel 1 '_Z17naive_kernel_nvmbffPfS_iii'
kernel_name = _Z17naive_kernel_nvmbffPfS_iii 
kernel_launch_uid = 1 
gpu_sim_cycle = 36109
gpu_sim_insn = 62715013
gpu_ipc =    1736.8250
gpu_tot_sim_cycle = 36109
gpu_tot_sim_insn = 62715013
gpu_tot_ipc =    1736.8250
gpu_tot_issued_cta = 2368
gpu_occupancy = 91.6600% 
gpu_tot_occupancy = 91.6600% 
max_total_param_size = 0
gpu_stall_dramfull = 214
gpu_stall_icnt2sh    = 0
partiton_level_parallism =      27.2623
partiton_level_parallism_total  =      27.2623
partiton_level_parallism_util =      32.2040
partiton_level_parallism_util_total  =      32.2040
L2_BW  =     979.2548 GB/Sec
L2_BW_total  =     979.2548 GB/Sec
gpu_total_sim_rate=135161
############## bottleneck_stats #############
cycles: core 36109, icnt 36109, l2 36109, dram 27113
gpu_ipc	1736.825
gpu_tot_issued_cta = 2368, average cycles = 15
n_dram_writes	 0, n_dram_reads	 0
n_GLOBAL_ACC_R	 211549 
n_LOCAL_ACC_R	 0 
n_CONST_ACC_R	 0 
n_TEXTURE_ACC_R	 0 
n_GLOBAL_ACC_W	 0 
n_LOCAL_ACC_W	 0 
n_L1_WRBK_ACC	 0 
n_L2_WRBK_ACC	 16198 
n_L1_WR_ALLOC_R	 0 
n_L2_WR_ALLOC_R	 0 

n_sm	 80, n_schedulers	 4
scheduler util	0.174	80
L1D data util	1.431	80	1.488	11
L1D tag util	0.422	80	0.439	68
L2 data util	0.656	64	0.666	44
L2 tag util	0.423	64	0.434	44
n_l2_access	 978278
icnt s2m util	0.000	0	0.000	44	flits per packet: -nan
icnt m2s util	0.000	0	0.000	44	flits per packet: -nan
sum=0
n_mem	 32
dram util	0.318	32	0.321	16

latency_l1_hit:	3555480, num_l1_reqs:	177774
L1 hit latency:	20
latency_l2_hit:	221013476, num_l2_reqs:	628937
L2 hit latency:	351
latency_dram:	319028485, num_dram_reqs:	347041
DRAM latency:	919

n_reg	65536, n_smem	98304, n_thread	2048, n_tb	32
reg file	0.625
smem size	0.000
thread slot	1.000
TB slot    	0.125
L1I tag util	0.355	80	0.369	21

n_mem_pipe	1, n_sp_pipe	4, n_sfu_pipe	4
mem pipe util	0.190	80	0.198	68
sp pipe util	0.049	80	0.051	68
sfu pipe util	0.000	0	0.000	68
ldst mem cycle	0.000	0	0.000	68

smem port	0.000	0

n_reg_bank	16
reg port	0.105	16	0.131	11
L1D tag util	0.422	80	0.439	68
L1D fill util	0.291	80	0.303	11
n_l1d_mshr	4096
L1D mshr util	0.041	80
n_l1d_missq	16
L1D missq util	0.021	80
L1D hit rate	0.146
L1D miss rate	0.854
L1D rsfail rate	0.000
L2 tag util	0.423	64	0.434	44
L2 fill util	0.092	64	0.092	7
n_l2_mshr	192
n_l2_missq	32
L2 mshr util	0.201	64	0.210	7
L2 missq util	0.003	64	0.004	3
L2 hit rate	0.643
L2 miss rate	0.357
L2 rsfail rate	0.000

dram activity	0.475	32	0.486	0

load trans eff	0.934
load trans sz	32.000
load_useful_bytes 32350564, load_transaction_bytes 34620544, icnt_m2s_bytes 0
n_gmem_load_insns 253730, n_gmem_load_accesses 1081892
n_smem_access_insn 0, n_smem_accesses 0

tmp_counter/12	0.434

run 0.017, fetch 0.003, sync 0.078, control 0.000, data 0.881, struct 0.022
############ end_bottleneck_stats #############

========= Core cache stats =========
L1I_cache:
	L1I_total_cache_accesses = 0
	L1I_total_cache_misses = 0
	L1I_total_cache_pending_hits = 0
	L1I_total_cache_reservation_fails = 0
L1D_cache:
	L1D_cache_core[0]: Access = 14938, Miss = 12743, Miss_rate = 0.853, Pending_hits = 0, Reservation_fails = 0
	L1D_cache_core[1]: Access = 15265, Miss = 12897, Miss_rate = 0.845, Pending_hits = 0, Reservation_fails = 0
	L1D_cache_core[2]: Access = 15349, Miss = 13219, Miss_rate = 0.861, Pending_hits = 0, Reservation_fails = 0
	L1D_cache_core[3]: Access = 15610, Miss = 13398, Miss_rate = 0.858, Pending_hits = 0, Reservation_fails = 0
	L1D_cache_core[4]: Access = 15465, Miss = 13478, Miss_rate = 0.872, Pending_hits = 0, Reservation_fails = 0
	L1D_cache_core[5]: Access = 14914, Miss = 12822, Miss_rate = 0.860, Pending_hits = 0, Reservation_fails = 0
	L1D_cache_core[6]: Access = 15012, Miss = 12739, Miss_rate = 0.849, Pending_hits = 0, Reservation_fails = 0
	L1D_cache_core[7]: Access = 15257, Miss = 12877, Miss_rate = 0.844, Pending_hits = 0, Reservation_fails = 0
	L1D_cache_core[8]: Access = 15220, Miss = 12999, Miss_rate = 0.854, Pending_hits = 0, Reservation_fails = 0
	L1D_cache_core[9]: Access = 15030, Miss = 12798, Miss_rate = 0.851, Pending_hits = 0, Reservation_fails = 0
	L1D_cache_core[10]: Access = 15288, Miss = 12909, Miss_rate = 0.844, Pending_hits = 0, Reservation_fails = 0
	L1D_cache_core[11]: Access = 15602, Miss = 13565, Miss_rate = 0.869, Pending_hits = 0, Reservation_fails = 0
	L1D_cache_core[12]: Access = 15064, Miss = 12609, Miss_rate = 0.837, Pending_hits = 0, Reservation_fails = 0
	L1D_cache_core[13]: Access = 15387, Miss = 13088, Miss_rate = 0.851, Pending_hits = 0, Reservation_fails = 0
	L1D_cache_core[14]: Access = 15464, Miss = 13384, Miss_rate = 0.865, Pending_hits = 0, Reservation_fails = 0
	L1D_cache_core[15]: Access = 15058, Miss = 12875, Miss_rate = 0.855, Pending_hits = 0, Reservation_fails = 0
	L1D_cache_core[16]: Access = 15011, Miss = 12849, Miss_rate = 0.856, Pending_hits = 0, Reservation_fails = 0
	L1D_cache_core[17]: Access = 14860, Miss = 12731, Miss_rate = 0.857, Pending_hits = 0, Reservation_fails = 0
	L1D_cache_core[18]: Access = 15192, Miss = 13072, Miss_rate = 0.860, Pending_hits = 0, Reservation_fails = 0
	L1D_cache_core[19]: Access = 15097, Miss = 12714, Miss_rate = 0.842, Pending_hits = 0, Reservation_fails = 0
	L1D_cache_core[20]: Access = 15607, Miss = 13204, Miss_rate = 0.846, Pending_hits = 0, Reservation_fails = 0
	L1D_cache_core[21]: Access = 15653, Miss = 13148, Miss_rate = 0.840, Pending_hits = 0, Reservation_fails = 0
	L1D_cache_core[22]: Access = 15208, Miss = 13045, Miss_rate = 0.858, Pending_hits = 0, Reservation_fails = 0
	L1D_cache_core[23]: Access = 14987, Miss = 12880, Miss_rate = 0.859, Pending_hits = 0, Reservation_fails = 0
	L1D_cache_core[24]: Access = 14971, Miss = 12806, Miss_rate = 0.855, Pending_hits = 0, Reservation_fails = 0
	L1D_cache_core[25]: Access = 15114, Miss = 13123, Miss_rate = 0.868, Pending_hits = 0, Reservation_fails = 0
	L1D_cache_core[26]: Access = 15221, Miss = 13017, Miss_rate = 0.855, Pending_hits = 0, Reservation_fails = 0
	L1D_cache_core[27]: Access = 15143, Miss = 13057, Miss_rate = 0.862, Pending_hits = 0, Reservation_fails = 0
	L1D_cache_core[28]: Access = 15280, Miss = 13130, Miss_rate = 0.859, Pending_hits = 0, Reservation_fails = 0
	L1D_cache_core[29]: Access = 15487, Miss = 13163, Miss_rate = 0.850, Pending_hits = 0, Reservation_fails = 0
	L1D_cache_core[30]: Access = 15550, Miss = 13463, Miss_rate = 0.866, Pending_hits = 0, Reservation_fails = 0
	L1D_cache_core[31]: Access = 15600, Miss = 13380, Miss_rate = 0.858, Pending_hits = 0, Reservation_fails = 0
	L1D_cache_core[32]: Access = 15160, Miss = 12835, Miss_rate = 0.847, Pending_hits = 0, Reservation_fails = 0
	L1D_cache_core[33]: Access = 15362, Miss = 13179, Miss_rate = 0.858, Pending_hits = 0, Reservation_fails = 0
	L1D_cache_core[34]: Access = 15094, Miss = 12595, Miss_rate = 0.834, Pending_hits = 0, Reservation_fails = 0
	L1D_cache_core[35]: Access = 15456, Miss = 13418, Miss_rate = 0.868, Pending_hits = 0, Reservation_fails = 0
	L1D_cache_core[36]: Access = 15295, Miss = 13115, Miss_rate = 0.857, Pending_hits = 0, Reservation_fails = 0
	L1D_cache_core[37]: Access = 15122, Miss = 12929, Miss_rate = 0.855, Pending_hits = 0, Reservation_fails = 0
	L1D_cache_core[38]: Access = 15380, Miss = 13315, Miss_rate = 0.866, Pending_hits = 0, Reservation_fails = 0
	L1D_cache_core[39]: Access = 15169, Miss = 12996, Miss_rate = 0.857, Pending_hits = 0, Reservation_fails = 0
	L1D_cache_core[40]: Access = 15025, Miss = 12843, Miss_rate = 0.855, Pending_hits = 0, Reservation_fails = 0
	L1D_cache_core[41]: Access = 15028, Miss = 12917, Miss_rate = 0.860, Pending_hits = 0, Reservation_fails = 0
	L1D_cache_core[42]: Access = 14893, Miss = 12867, Miss_rate = 0.864, Pending_hits = 0, Reservation_fails = 0
	L1D_cache_core[43]: Access = 14783, Miss = 12750, Miss_rate = 0.862, Pending_hits = 0, Reservation_fails = 0
	L1D_cache_core[44]: Access = 15147, Miss = 13001, Miss_rate = 0.858, Pending_hits = 0, Reservation_fails = 0
	L1D_cache_core[45]: Access = 15077, Miss = 12772, Miss_rate = 0.847, Pending_hits = 0, Reservation_fails = 0
	L1D_cache_core[46]: Access = 15170, Miss = 12874, Miss_rate = 0.849, Pending_hits = 0, Reservation_fails = 0
	L1D_cache_core[47]: Access = 15186, Miss = 13130, Miss_rate = 0.865, Pending_hits = 0, Reservation_fails = 0
	L1D_cache_core[48]: Access = 14787, Miss = 12562, Miss_rate = 0.850, Pending_hits = 0, Reservation_fails = 0
	L1D_cache_core[49]: Access = 15284, Miss = 13078, Miss_rate = 0.856, Pending_hits = 0, Reservation_fails = 0
	L1D_cache_core[50]: Access = 15300, Miss = 12916, Miss_rate = 0.844, Pending_hits = 0, Reservation_fails = 0
	L1D_cache_core[51]: Access = 15208, Miss = 13033, Miss_rate = 0.857, Pending_hits = 0, Reservation_fails = 0
	L1D_cache_core[52]: Access = 14966, Miss = 12667, Miss_rate = 0.846, Pending_hits = 0, Reservation_fails = 0
	L1D_cache_core[53]: Access = 15402, Miss = 12976, Miss_rate = 0.842, Pending_hits = 0, Reservation_fails = 0
	L1D_cache_core[54]: Access = 15022, Miss = 12780, Miss_rate = 0.851, Pending_hits = 0, Reservation_fails = 0
	L1D_cache_core[55]: Access = 15196, Miss = 13028, Miss_rate = 0.857, Pending_hits = 0, Reservation_fails = 0
	L1D_cache_core[56]: Access = 14539, Miss = 12341, Miss_rate = 0.849, Pending_hits = 0, Reservation_fails = 0
	L1D_cache_core[57]: Access = 14687, Miss = 12419, Miss_rate = 0.846, Pending_hits = 0, Reservation_fails = 0
	L1D_cache_core[58]: Access = 15146, Miss = 12807, Miss_rate = 0.846, Pending_hits = 0, Reservation_fails = 0
	L1D_cache_core[59]: Access = 15516, Miss = 13191, Miss_rate = 0.850, Pending_hits = 0, Reservation_fails = 0
	L1D_cache_core[60]: Access = 15088, Miss = 12988, Miss_rate = 0.861, Pending_hits = 0, Reservation_fails = 0
	L1D_cache_core[61]: Access = 14664, Miss = 12549, Miss_rate = 0.856, Pending_hits = 0, Reservation_fails = 0
	L1D_cache_core[62]: Access = 14996, Miss = 12810, Miss_rate = 0.854, Pending_hits = 0, Reservation_fails = 0
	L1D_cache_core[63]: Access = 15630, Miss = 13245, Miss_rate = 0.847, Pending_hits = 0, Reservation_fails = 0
	L1D_cache_core[64]: Access = 15434, Miss = 13081, Miss_rate = 0.848, Pending_hits = 0, Reservation_fails = 0
	L1D_cache_core[65]: Access = 15452, Miss = 13379, Miss_rate = 0.866, Pending_hits = 0, Reservation_fails = 0
	L1D_cache_core[66]: Access = 15536, Miss = 13114, Miss_rate = 0.844, Pending_hits = 0, Reservation_fails = 0
	L1D_cache_core[67]: Access = 15688, Miss = 13262, Miss_rate = 0.845, Pending_hits = 0, Reservation_fails = 0
	L1D_cache_core[68]: Access = 15841, Miss = 13382, Miss_rate = 0.845, Pending_hits = 0, Reservation_fails = 0
	L1D_cache_core[69]: Access = 14905, Miss = 12670, Miss_rate = 0.850, Pending_hits = 0, Reservation_fails = 0
	L1D_cache_core[70]: Access = 14913, Miss = 12878, Miss_rate = 0.864, Pending_hits = 0, Reservation_fails = 0
	L1D_cache_core[71]: Access = 15507, Miss = 13409, Miss_rate = 0.865, Pending_hits = 0, Reservation_fails = 0
	L1D_cache_core[72]: Access = 15530, Miss = 12923, Miss_rate = 0.832, Pending_hits = 0, Reservation_fails = 0
	L1D_cache_core[73]: Access = 15639, Miss = 13389, Miss_rate = 0.856, Pending_hits = 0, Reservation_fails = 0
	L1D_cache_core[74]: Access = 14960, Miss = 12736, Miss_rate = 0.851, Pending_hits = 0, Reservation_fails = 0
	L1D_cache_core[75]: Access = 15536, Miss = 13229, Miss_rate = 0.852, Pending_hits = 0, Reservation_fails = 0
	L1D_cache_core[76]: Access = 15520, Miss = 13114, Miss_rate = 0.845, Pending_hits = 0, Reservation_fails = 0
	L1D_cache_core[77]: Access = 15472, Miss = 13391, Miss_rate = 0.865, Pending_hits = 0, Reservation_fails = 0
	L1D_cache_core[78]: Access = 14859, Miss = 12875, Miss_rate = 0.866, Pending_hits = 0, Reservation_fails = 0
	L1D_cache_core[79]: Access = 15530, Miss = 13290, Miss_rate = 0.856, Pending_hits = 0, Reservation_fails = 0
	L1D_total_cache_accesses = 1218004
	L1D_total_cache_misses = 1040230
	L1D_total_cache_miss_rate = 0.8540
	L1D_total_cache_pending_hits = 0
	L1D_total_cache_reservation_fails = 0
	L1D_cache_data_port_util = 0.071
	L1D_cache_fill_port_util = 0.338
L1C_cache:
	L1C_total_cache_accesses = 0
	L1C_total_cache_misses = 0
	L1C_total_cache_pending_hits = 0
	L1C_total_cache_reservation_fails = 0
L1T_cache:
	L1T_total_cache_accesses = 0
	L1T_total_cache_misses = 0
	L1T_total_cache_pending_hits = 0
	L1T_total_cache_reservation_fails = 0

Total_core_cache_stats:
	Total_core_cache_stats_breakdown[GLOBAL_ACC_R][HIT] = 177774
	Total_core_cache_stats_breakdown[GLOBAL_ACC_R][HIT_RESERVED] = 0
	Total_core_cache_stats_breakdown[GLOBAL_ACC_R][MISS] = 777591
	Total_core_cache_stats_breakdown[GLOBAL_ACC_R][RESERVATION_FAIL] = 0
	Total_core_cache_stats_breakdown[GLOBAL_ACC_R][SECTOR_MISS] = 125173
	Total_core_cache_stats_breakdown[LOCAL_ACC_R][HIT] = 0
	Total_core_cache_stats_breakdown[LOCAL_ACC_R][HIT_RESERVED] = 0
	Total_core_cache_stats_breakdown[LOCAL_ACC_R][MISS] = 0
	Total_core_cache_stats_breakdown[LOCAL_ACC_R][RESERVATION_FAIL] = 0
	Total_core_cache_stats_breakdown[LOCAL_ACC_R][SECTOR_MISS] = 0
	Total_core_cache_stats_breakdown[CONST_ACC_R][HIT] = 0
	Total_core_cache_stats_breakdown[CONST_ACC_R][HIT_RESERVED] = 0
	Total_core_cache_stats_breakdown[CONST_ACC_R][MISS] = 0
	Total_core_cache_stats_breakdown[CONST_ACC_R][RESERVATION_FAIL] = 0
	Total_core_cache_stats_breakdown[CONST_ACC_R][SECTOR_MISS] = 0
	Total_core_cache_stats_breakdown[TEXTURE_ACC_R][HIT] = 0
	Total_core_cache_stats_breakdown[TEXTURE_ACC_R][HIT_RESERVED] = 0
	Total_core_cache_stats_breakdown[TEXTURE_ACC_R][MISS] = 0
	Total_core_cache_stats_breakdown[TEXTURE_ACC_R][RESERVATION_FAIL] = 0
	Total_core_cache_stats_breakdown[TEXTURE_ACC_R][SECTOR_MISS] = 0
	Total_core_cache_stats_breakdown[GLOBAL_ACC_W][HIT] = 0
	Total_core_cache_stats_breakdown[GLOBAL_ACC_W][HIT_RESERVED] = 0
	Total_core_cache_stats_breakdown[GLOBAL_ACC_W][MISS] = 137466
	Total_core_cache_stats_breakdown[GLOBAL_ACC_W][RESERVATION_FAIL] = 0
	Total_core_cache_stats_breakdown[GLOBAL_ACC_W][SECTOR_MISS] = 0
	Total_core_cache_stats_breakdown[LOCAL_ACC_W][HIT] = 0
	Total_core_cache_stats_breakdown[LOCAL_ACC_W][HIT_RESERVED] = 0
	Total_core_cache_stats_breakdown[LOCAL_ACC_W][MISS] = 0
	Total_core_cache_stats_breakdown[LOCAL_ACC_W][RESERVATION_FAIL] = 0
	Total_core_cache_stats_breakdown[LOCAL_ACC_W][SECTOR_MISS] = 0
	Total_core_cache_stats_breakdown[L1_WRBK_ACC][HIT] = 0
	Total_core_cache_stats_breakdown[L1_WRBK_ACC][HIT_RESERVED] = 0
	Total_core_cache_stats_breakdown[L1_WRBK_ACC][MISS] = 0
	Total_core_cache_stats_breakdown[L1_WRBK_ACC][RESERVATION_FAIL] = 0
	Total_core_cache_stats_breakdown[L1_WRBK_ACC][SECTOR_MISS] = 0
	Total_core_cache_stats_breakdown[L2_WRBK_ACC][HIT] = 0
	Total_core_cache_stats_breakdown[L2_WRBK_ACC][HIT_RESERVED] = 0
	Total_core_cache_stats_breakdown[L2_WRBK_ACC][MISS] = 0
	Total_core_cache_stats_breakdown[L2_WRBK_ACC][RESERVATION_FAIL] = 0
	Total_core_cache_stats_breakdown[L2_WRBK_ACC][SECTOR_MISS] = 0
	Total_core_cache_stats_breakdown[INST_ACC_R][HIT] = 0
	Total_core_cache_stats_breakdown[INST_ACC_R][HIT_RESERVED] = 0
	Total_core_cache_stats_breakdown[INST_ACC_R][MISS] = 0
	Total_core_cache_stats_breakdown[INST_ACC_R][RESERVATION_FAIL] = 0
	Total_core_cache_stats_breakdown[INST_ACC_R][SECTOR_MISS] = 0
	Total_core_cache_stats_breakdown[L1_WR_ALLOC_R][HIT] = 0
	Total_core_cache_stats_breakdown[L1_WR_ALLOC_R][HIT_RESERVED] = 0
	Total_core_cache_stats_breakdown[L1_WR_ALLOC_R][MISS] = 0
	Total_core_cache_stats_breakdown[L1_WR_ALLOC_R][RESERVATION_FAIL] = 0
	Total_core_cache_stats_breakdown[L1_WR_ALLOC_R][SECTOR_MISS] = 0
	Total_core_cache_stats_breakdown[L2_WR_ALLOC_R][HIT] = 0
	Total_core_cache_stats_breakdown[L2_WR_ALLOC_R][HIT_RESERVED] = 0
	Total_core_cache_stats_breakdown[L2_WR_ALLOC_R][MISS] = 0
	Total_core_cache_stats_breakdown[L2_WR_ALLOC_R][RESERVATION_FAIL] = 0
	Total_core_cache_stats_breakdown[L2_WR_ALLOC_R][SECTOR_MISS] = 0
	Total_core_cache_stats_breakdown[GLOBAL_ACC_R][TOTAL_ACCESS] = 1080538
	Total_core_cache_stats_breakdown[GLOBAL_ACC_W][TOTAL_ACCESS] = 137466

Total_core_cache_fail_stats:
Shader 0 warp_id issue ditsribution:
warp_id:
0, 1, 2, 3, 4, 5, 6, 7, 8, 9, 10, 11, 12, 13, 14, 15, 16, 17, 18, 19, 20, 21, 22, 23, 24, 25, 26, 27, 28, 29, 30, 31, 32, 33, 34, 35, 36, 37, 38, 39, 40, 41, 42, 43, 44, 45, 46, 47, 48, 49, 50, 51, 52, 53, 54, 55, 56, 57, 58, 59, 60, 61, 62, 63, 
distro:
385, 385, 384, 385, 385, 385, 385, 385, 384, 385, 384, 384, 385, 385, 385, 385, 387, 387, 387, 387, 386, 387, 387, 387, 385, 385, 385, 385, 385, 385, 385, 385, 385, 385, 385, 379, 379, 384, 376, 376, 376, 379, 379, 379, 376, 376, 376, 376, 376, 376, 376, 376, 376, 379, 376, 376, 374, 374, 376, 376, 374, 374, 375, 374, 
gpgpu_n_tot_thrd_icount = 64139168
gpgpu_n_tot_w_icount = 2004349
gpgpu_n_stall_shd_mem = 930819
gpgpu_n_mem_read_local = 0
gpgpu_n_mem_write_local = 0
gpgpu_n_mem_read_global = 851681
gpgpu_n_mem_write_global = 137458
gpgpu_n_mem_texture = 0
gpgpu_n_mem_const = 0
gpgpu_n_load_insn  = 8082438
gpgpu_n_store_insn = 1096862
gpgpu_n_shmem_insn = 0
gpgpu_n_sstarr_insn = 0
gpgpu_n_tex_insn = 0
gpgpu_n_const_mem_insn = 0
gpgpu_n_param_mem_insn = 7219795
gpgpu_n_shmem_bkconflict = 0
gpgpu_n_cache_bkconflict = 0
gpgpu_n_intrawarp_mshr_merge = 0
gpgpu_n_cmem_portconflict = 0
gpgpu_stall_shd_mem[c_mem][resource_stall] = 0
gpgpu_stall_shd_mem[s_mem][bk_conf] = 0
gpgpu_stall_shd_mem[gl_mem][resource_stall] = 930819
gpgpu_stall_shd_mem[gl_mem][coal_stall] = 0
gpgpu_stall_shd_mem[gl_mem][data_port_stall] = 0
gpu_reg_bank_conflict_stalls = 0
Warp Occupancy Distribution:
Stall:1624276	W0_Idle:3256	W0_Scoreboard:6318704	W1:0	W2:0	W3:0	W4:0	W5:0	W6:0	W7:0	W8:0	W9:0	W10:0	W11:0	W12:0	W13:0	W14:0	W15:0	W16:0	W17:0	W18:0	W19:0	W20:0	W21:0	W22:0	W23:0	W24:0	W25:0	W26:0	W27:0	W28:0	W29:0	W30:0	W31:227790	W32:1780534
single_issue_nums: WS0:502070	WS1:502088	WS2:502095	WS3:502071	
dual_issue_nums: WS0:0	WS1:0	WS2:0	WS3:0	
traffic_breakdown_coretomem[GLOBAL_ACC_R] = 6813448 {8:851681,}
traffic_breakdown_coretomem[GLOBAL_ACC_W] = 5498320 {40:137458,}
traffic_breakdown_memtocore[GLOBAL_ACC_R] = 33646080 {40:841152,}
traffic_breakdown_memtocore[GLOBAL_ACC_W] = 1079160 {8:134895,}
maxmflatency = 4599 
max_icnt2mem_latency = 3898 
maxmrqlatency = 444 
max_icnt2sh_latency = 331 
averagemflatency = 552 
avg_icnt2mem_latency = 281 
avg_mrq_latency = 40 
avg_icnt2sh_latency = 18 
mrq_lat_table:44625 	26712 	18333 	18226 	30066 	41708 	29239 	16265 	2533 	0 	0 	0 	0 	0 	0 	0 	0 	0 	0 	0 	0 	0 	0 	0 	0 	0 	0 	0 	0 	0 	0 	0 	
dq_lat_table:0 	0 	0 	0 	0 	0 	0 	0 	0 	0 	0 	0 	0 	0 	0 	0 	0 	0 	0 	0 	0 	0 	0 	0 	0 	0 	0 	0 	0 	0 	0 	0 	
mf_lat_table:0 	0 	0 	0 	0 	0 	0 	180770 	548907 	162294 	45098 	34868 	4079 	0 	0 	0 	0 	0 	0 	0 	0 	0 	0 	0 	0 	0 	0 	0 	0 	0 	0 	0 	
icnt2mem_lat_table:0 	0 	0 	0 	62089 	123998 	227346 	353504 	151524 	18508 	16673 	30771 	0 	0 	0 	0 	0 	0 	0 	0 	0 	0 	0 	0 	
icnt2sh_lat_table:0 	471057 	148739 	105506 	88125 	79789 	59694 	21805 	1301 	0 	0 	0 	0 	0 	0 	0 	0 	0 	0 	0 	0 	0 	0 	0 	
mf_lat_pw_table:0 	0 	0 	0 	0 	0 	0 	0 	45 	6 	3 	6 	1 	0 	0 	0 	0 	0 	0 	0 	0 	0 	0 	0 	0 	0 	0 	0 	0 	0 	0 	0 	
maximum concurrent accesses to same row:
dram[0]:        64        64        64        64        64        64        64        64        64        64        64        64        64        64        64        64 
dram[1]:        64        64        64        64        64        64        64        64        64        64        64        64        64        64        64        64 
dram[2]:        64        64        64        64        64        64        64        64        64        64        64        64        64        64        64        64 
dram[3]:        64        64        64        64        64        64        64        64        64        64        64        64        64        64        64        64 
dram[4]:        64        64        64        64        64        64        64        64        64        64        64        64        64        64        64        64 
dram[5]:        64        64        64        64        64        64        64        64        64        64        64        64        64        64        64        64 
dram[6]:        64        64        64        64        64        64        64        64        64        64        64        64        64        64        64        64 
dram[7]:        64        64        64        64        64        64        64        64        64        64        64        64        64        64        64        64 
dram[8]:        64        64        64        64        64        64        64        64        64        64        64        64        64        64        64        64 
dram[9]:        64        64        64        64        64        64        64        64        64        64        64        64        64        64        64        64 
dram[10]:        64        64        64        64        64        64        64        64        64        64        64        64        64        64        64        64 
dram[11]:        64        64        64        64        64        64        64        64        64        64        64        64        64        64        64        64 
dram[12]:        64        64        64        64        64        64        64        64        64        64        64        64        64        64        64        64 
dram[13]:        64        64        64        64        64        64        64        64        64        64        64        64        64        64        64        64 
dram[14]:        64        64        64        64        64        64        64        64        64        64        64        64        64        64        64        64 
dram[15]:        64        64        64        64        64        64        64        64        64        64        64        64        64        64        64        64 
dram[16]:        64        64        64        64        64        64        64        64        64        64        64        64        64        64        64        64 
dram[17]:        64        64        64        64        64        64        64        64        64        64        64        64        64        64        64        64 
dram[18]:        64        64        64        64        64        64        64        64        64        64        64        64        64        64        64        64 
dram[19]:        64        64        64        64        64        64        64        64        64        64        64        64        64        64        64        64 
dram[20]:        64        64        64        64        64        64        64        64        64        64        64        64        64        64        64        64 
dram[21]:        64        64        64        64        64        64        64        64        64        64        64        64        64        64        64        64 
dram[22]:        64        64        64        64        64        64        64        64        64        64        64        64        64        64        64        64 
dram[23]:        64        64        64        64        64        64        64        64        64        64        64        64        64        64        64        64 
dram[24]:        64        64        64        64        64        64        64        64        64        64        64        64        64        64        64        64 
dram[25]:        64        64        64        64        64        64        64        64        64        64        64        64        64        64        64        64 
dram[26]:        64        64        64        64        64        64        64        64        64        64        64        64        64        64        64        64 
dram[27]:        64        64        64        64        64        64        64        64        64        64        64        64        64        64        64        64 
dram[28]:        64        64        64        64        64        64        64        64        64        64        64        64        64        64        64        64 
dram[29]:        64        64        64        64        64        64        64        64        64        64        64        64        64        64        64        64 
dram[30]:        64        64        64        64        64        64        64        64        64        64        64        64        64        64        64        64 
dram[31]:        64        64        64        64        64        64        64        64        64        64        64        64        64        64        64        64 
maximum service time to same row:
dram[0]:      5976      6747      6901      7025      7064      7003      8244      8248      9226      9230      9248     12936     13478     13447     13751     13877 
dram[1]:      5906      6930      6939      6974      7092      6911      8094      8098      9376      9380      9397     12920     13483     13430     13792     13872 
dram[2]:      6048      6916      7008      6969      7301      7305      8464      8468      9527      9531      9549     12988     13563     13509     13726     13905 
dram[3]:      6329      6868      6881      6972      7331      7335      8395      8399      9595      9599      9617     12948     13546     13454     13820     13887 
dram[4]:      6550      6921      7017      6981      7545      7549      8657      8661      9718      9722      9757     13061     13598     13529     13804     13976 
dram[5]:      6478      6868      7050      6954      7614      7618      8726      8730      9748      9752      9770     13105     13546     13463     13755     13927 
dram[6]:      6699      6903      7050      7069      7807      7811      8869      8873      9880      9884      9902     13170     13639     13575     13967     14011 
dram[7]:      6730      6929      6982      6997      7875      7879      9009      9013     10033     10037     10055     13049     13615     13607     13903     14001 
dram[8]:      6841      6863      6926      7250      7033      7003      8247      8248      9228      9230     11053     12987     13543     13434     13884     13768 
dram[9]:      6800      6877      6955      7223      6966      6911      8096      8098      9379      9380     11130     13017     13525     13443     13831     13790 
dram[10]:      6829      6800      6896      7361      7304      7305      8467      8468      9529      9531     11142     13054     13612     13533     13892     13776 
dram[11]:      6795      6787      6926      7197      7333      7335      8397      8399      9597      9599     11195     13065     13569     13481     13852     13784 
dram[12]:      6843      6794      6781      7254      7548      7549      8660      8661      9721      9722     11201     13170     13699     13551     14001     13856 
dram[13]:      6827      6821      6998      7222      7617      7618      8729      8730      9750      9752     11218     13149     13599     13470     13912     13816 
dram[14]:      6898      6808      6953      7217      7810      7811      8871      8873      9882      9884     11253     13189     13682     13623     13953     13909 
dram[15]:      6868      6784      6902      7272      7878      7879      9011      9013     10035     10037     11277     13224     13671     13594     13977     13916 
dram[16]:      6996      6837      7008      7222      7002      7003      8247      8248      9228      9230     12816     13004     13571     13470     13859     13807 
dram[17]:      6909      6901      7064      7196      7019      6911      8096      8098      9379      9380     12832     13078     13557     13507     13871     13834 
dram[18]:      7027      6949      7204      7348      7304      7305      8467      8468      9529      9531     12824     13082     13537     13499     13851     13836 
dram[19]:      6888      6751      6979      7241      7333      7335      8397      8399      9597      9599     12876     13070     13541     13493     13907     13839 
dram[20]:      6796      6896      7053      7270      7548      7549      8660      8661      9721      9722     12900     13145     13610     13534     13907     13848 
dram[21]:      7004      6905      7126      7216      7617      7618      8729      8730      9750      9752     13019     13165     13521     13561     13850     13889 
dram[22]:      7072      6933      7106      7401      7810      7811      8871      8873      9882      9884     12952     13181     13747     13585     13975     13955 
dram[23]:      6853      6893      7140      7275      7878      7879      9011      9013     10035     10037     13089     13268     13728     13603     13953     13981 
dram[24]:      6985      7017      7114      7152      7002      7003      8247      8248      9228      9230     12816     12996     13531     13490     13867     13889 
dram[25]:      6976      7032      7077      7359      6910      6911      8096      8098      9379      9380     12808     12945     13541     13538     13807     13892 
dram[26]:      7032      7056      7063      7157      7304      7305      8467      8468      9529      9531     12840     12884     13538     13539     13896     13912 
dram[27]:      6971      6994      7085      7180      7333      7335      8397      8399      9597      9599     12900     12972     13553     13554     13831     13911 
dram[28]:      7049      7100      7178      7177      7548      7549      8660      8661      9721      9722     12880     13022     13602     13611     14035     13913 
dram[29]:      6996      6983      7074      7124      7617      7618      8729      8730      9750      9752     12917     13013     13587     13659     13895     13963 
dram[30]:      7054      7031      7121      7322      7810      7811      8871      8873      9882      9884     12952     13189     13616     13654     14009     14068 
dram[31]:      6915      6992      7002      7073      7878      7879      9011      9013     10035     10037     13029     13162     13598     13635     14071     14072 
average row accesses per activate:
dram[0]: 28.875000 40.166668 27.000000 22.318182 32.000000 32.000000 33.642857 33.428570 46.222221 46.222221 18.086956 27.733334 34.666668 29.714285 29.357143 45.777779 
dram[1]: 28.875000 40.166668 30.000000 25.526316 36.923077 36.923077 36.307693 31.266666 41.599998 52.000000 20.799999 24.470589 29.714285 29.714285 34.166668 45.888889 
dram[2]: 27.235294 40.083332 25.263159 26.888889 32.000000 32.000000 30.666666 29.062500 41.599998 41.599998 18.086956 20.799999 29.714285 29.714285 31.384615 41.299999 
dram[3]: 28.875000 43.636364 25.263159 26.777779 32.000000 32.000000 31.000000 31.466667 41.599998 41.599998 17.333334 23.111111 29.714285 29.714285 33.833332 41.400002 
dram[4]: 30.799999 48.099998 30.062500 26.833334 32.000000 32.000000 35.076923 35.692307 37.818180 46.222221 18.086956 23.111111 32.000000 29.714285 37.000000 41.099998 
dram[5]: 28.937500 43.636364 26.722221 30.125000 34.285713 34.285713 30.866667 30.933332 41.599998 41.599998 18.909090 24.470589 27.733334 27.733334 33.750000 41.400002 
dram[6]: 28.875000 40.166668 24.049999 25.263159 32.000000 32.000000 30.400000 30.933332 41.599998 41.599998 18.909090 23.111111 26.000000 34.666668 36.909092 45.666668 
dram[7]: 28.875000 40.250000 24.049999 25.263159 32.000000 32.000000 30.400000 30.933332 34.666668 41.599998 19.809525 23.111111 29.714285 29.714285 33.833332 41.099998 
dram[8]: 43.636364 40.250000 24.150000 21.954546 32.000000 32.000000 33.142857 29.062500 46.222221 46.222221 21.894737 29.714285 27.733334 23.111111 31.846153 34.000000 
dram[9]: 43.636364 40.333332 25.526316 28.352942 36.923077 36.923077 35.692307 33.214287 41.599998 52.000000 21.894737 26.000000 26.000000 26.000000 31.769230 37.181820 
dram[10]: 43.636364 40.250000 30.250000 25.263159 32.000000 32.000000 30.933332 30.933332 34.666668 41.599998 17.333334 27.733334 27.733334 29.714285 31.769230 40.599998 
dram[11]: 43.636364 40.083332 26.888889 28.235294 32.000000 32.000000 30.933332 29.062500 29.714285 41.599998 20.799999 27.733334 27.733334 21.894737 27.466667 31.461538 
dram[12]: 53.333332 48.400002 34.642857 30.125000 32.000000 32.000000 35.076923 35.692307 46.222221 46.222221 18.909090 24.470589 29.714285 24.470589 29.285715 37.000000 
dram[13]: 40.166668 40.166668 30.187500 26.888889 34.285713 34.285713 30.799999 30.933332 41.599998 34.666668 19.809525 27.733334 23.111111 21.894737 27.333334 34.083332 
dram[14]: 40.166668 40.166668 26.777779 28.235294 32.000000 32.000000 30.400000 27.000000 34.666668 41.599998 18.909090 24.470589 27.733334 24.470589 29.142857 36.909092 
dram[15]: 40.166668 34.500000 26.833334 21.909090 32.000000 32.000000 30.666666 30.466667 34.666668 41.599998 21.894737 26.000000 26.000000 19.809525 29.142857 36.818180 
dram[16]: 40.083332 40.166668 27.111111 26.944445 32.000000 32.000000 33.714287 32.142857 46.222221 46.222221 20.799999 27.733334 24.470589 29.714285 34.583332 41.000000 
dram[17]: 40.166668 40.166668 28.588236 28.411764 36.923077 36.923077 36.307693 35.230770 52.000000 52.000000 20.799999 27.733334 24.470589 34.666668 34.583332 34.166668 
dram[18]: 43.636364 40.166668 24.200001 26.833334 32.000000 32.000000 31.466667 28.062500 41.599998 41.599998 20.799999 27.733334 21.894737 29.714285 29.571428 37.090908 
dram[19]: 40.083332 40.166668 24.150000 26.777779 32.000000 32.000000 31.466667 26.470589 41.599998 41.599998 21.894737 27.733334 19.809525 29.714285 34.416668 37.090908 
dram[20]: 48.099998 53.333332 26.777779 30.250000 32.000000 32.000000 35.461540 34.461540 46.222221 46.222221 21.894737 26.000000 26.000000 29.714285 24.117647 34.000000 
dram[21]: 40.166668 40.083332 24.100000 26.833334 34.285713 34.285713 26.941177 29.866667 41.599998 41.599998 21.894737 27.733334 19.809525 27.733334 25.500000 34.083332 
dram[22]: 40.083332 43.636364 21.863636 30.062500 32.000000 32.000000 30.400000 29.866667 41.599998 41.599998 20.799999 27.733334 24.470589 27.733334 27.200001 37.272728 
dram[23]: 40.083332 43.636364 25.263159 28.235294 32.000000 32.000000 30.666666 29.866667 41.599998 41.599998 19.809525 27.733334 24.470589 29.714285 29.357143 37.181820 
dram[24]: 40.166668 40.166668 26.888889 27.000000 32.000000 32.000000 33.142857 33.142857 46.222221 46.222221 26.000000 27.733334 37.818180 27.733334 34.666668 28.000000 
dram[25]: 43.636364 40.250000 34.285713 32.133335 36.923077 36.923077 35.692307 35.692307 52.000000 52.000000 23.111111 26.000000 37.818180 32.000000 29.571428 30.076923 
dram[26]: 43.636364 40.083332 26.777779 26.833334 32.000000 32.000000 30.933332 30.933332 34.666668 41.599998 23.111111 27.733334 34.666668 29.714285 31.692308 30.076923 
dram[27]: 43.636364 43.636364 32.000000 30.187500 32.000000 32.000000 26.941177 27.352942 34.666668 41.599998 23.111111 23.111111 37.818180 29.714285 29.428572 30.153847 
dram[28]: 48.200001 53.333332 28.235294 34.357143 32.000000 32.000000 35.076923 35.230770 46.222221 46.222221 20.799999 26.000000 34.666668 34.666668 31.461538 24.437500 
dram[29]: 43.636364 40.083332 34.500000 30.187500 34.285713 34.285713 30.400000 30.733334 34.666668 41.599998 23.111111 26.000000 32.000000 29.714285 27.266666 30.000000 
dram[30]: 40.083332 40.166668 28.235294 30.062500 32.000000 32.000000 30.400000 30.400000 34.666668 34.666668 21.894737 27.733334 34.666668 29.642857 34.000000 29.692308 
dram[31]: 40.166668 40.166668 26.722221 30.062500 32.000000 32.000000 30.400000 30.666666 34.666668 34.666668 21.894737 26.000000 29.714285 29.714285 33.916668 27.571428 
average row locality = 227707/7326 = 31.082037
number of total memory accesses made:
dram[0]:         0         0         0         0         0         0         0         0         0         0         0         0         0         0         0         0 
dram[1]:         0         0         0         0         0         0         0         0         0         0         0         0         0         0         0         0 
dram[2]:         0         0         0         0         0         0         0         0         0         0         0         0         0         0         0         0 
dram[3]:         0         0         0         0         0         0         0         0         0         0         0         0         0         0         0         0 
dram[4]:         0         0         0         0         0         0         0         0         0         0         0         0         0         0         0         0 
dram[5]:         0         0         0         0         0         0         0         0         0         0         0         0         0         0         0         0 
dram[6]:         0         0         0         0         0         0         0         0         0         0         0         0         0         0         0         0 
dram[7]:         0         0         0         0         0         0         0         0         0         0         0         0         0         0         0         0 
dram[8]:         0         0         0         0         0         0         0         0         0         0         0         0         0         0         0         0 
dram[9]:         0         0         0         0         0         0         0         0         0         0         0         0         0         0         0         0 
dram[10]:         0         0         0         0         0         0         0         0         0         0         0         0         0         0         0         0 
dram[11]:         0         0         0         0         0         0         0         0         0         0         0         0         0         0         0         0 
dram[12]:         0         0         0         0         0         0         0         0         0         0         0         0         0         0         0         0 
dram[13]:         0         0         0         0         0         0         0         0         0         0         0         0         0         0         0         0 
dram[14]:         0         0         0         0         0         0         0         0         0         0         0         0         0         0         0         0 
dram[15]:         0         0         0         0         0         0         0         0         0         0         0         0         0         0         0         0 
dram[16]:         0         0         0         0         0         0         0         0         0         0         0         0         0         0         0         0 
dram[17]:         0         0         0         0         0         0         0         0         0         0         0         0         0         0         0         0 
dram[18]:         0         0         0         0         0         0         0         0         0         0         0         0         0         0         0         0 
dram[19]:         0         0         0         0         0         0         0         0         0         0         0         0         0         0         0         0 
dram[20]:         0         0         0         0         0         0         0         0         0         0         0         0         0         0         0         0 
dram[21]:         0         0         0         0         0         0         0         0         0         0         0         0         0         0         0         0 
dram[22]:         0         0         0         0         0         0         0         0         0         0         0         0         0         0         0         0 
dram[23]:         0         0         0         0         0         0         0         0         0         0         0         0         0         0         0         0 
dram[24]:         0         0         0         0         0         0         0         0         0         0         0         0         0         0         0         0 
dram[25]:         0         0         0         0         0         0         0         0         0         0         0         0         0         0         0         0 
dram[26]:         0         0         0         0         0         0         0         0         0         0         0         0         0         0         0         0 
dram[27]:         0         0         0         0         0         0         0         0         0         0         0         0         0         0         0         0 
dram[28]:         0         0         0         0         0         0         0         0         0         0         0         0         0         0         0         0 
dram[29]:         0         0         0         0         0         0         0         0         0         0         0         0         0         0         0         0 
dram[30]:         0         0         0         0         0         0         0         0         0         0         0         0         0         0         0         0 
dram[31]:         0         0         0         0         0         0         0         0         0         0         0         0         0         0         0         0 
total accesses: 0
min_bank_accesses = 0!
min_chip_accesses = 0!
number of total read accesses:
dram[0]:       432       448       448       448       448       448       439       437       384       384       384       384       384       384       384       384 
dram[1]:       432       448       448       448       448       448       440       436       384       384       384       384       384       384       384       384 
dram[2]:       432       448       448       448       448       448       428       432       384       384       384       384       384       384       384       384 
dram[3]:       432       448       448       448       448       448       433       440       384       384       384       384       384       384       384       384 
[...]
RTWc_limit_alone = 2993 

Commands details: 
total_CMD = 27113 
n_nop = 18289 
Read = 6600 
Write = 0 
L2_Alloc = 0 
L2_WB = 2020 
n_act = 227 
n_pre = 211 
n_ref = 0 
n_req = 7110 
total_req = 8620 

Dual Bus Interface Util: 
issued_total_row = 438 
issued_total_col = 8620 
Row_Bus_Util =  0.016155 
CoL_Bus_Util = 0.317929 
Either_Row_CoL_Bus_Util = 0.325453 
Issued_on_Two_Bus_Simul_Util = 0.008631 
issued_two_Eff = 0.026519 
queue_avg = 7.830930 


dram_util_bins: 0 0 0 0 0 0 0 0 0 0
dram_eff_bins: 0 0 0 0 0 0 0 0 0 0
mrqq: max=64 avg=7.83093
Memory Partition 28: 
Cache L2_bank_056:

Cache L2_bank_057:

In Dram Latency Queue (total = 76): 
DRAM[28]: 16 bks, busW=16 BL=2 CL=12, tRRD=3 tCCD=1, tRCD=12 tRAS=28 tRP=12 tRC=40
n_cmd=27113 n_nop=18346 n_act=213 n_pre=197 n_ref_event=0 n_req=7096 n_rd=6593 n_rd_L2_A=0 n_write=0 n_wr_bk=1996 bw_util=0.3168
n_activity=14836 dram_eff=0.5789
bk0: 448a 25143i bk1: 448a 24927i bk2: 448a 25073i bk3: 448a 24616i bk4: 448a 25172i bk5: 448a 24988i bk6: 424a 25402i bk7: 425a 25018i bk8: 384a 25135i bk9: 384a 24936i bk10: 384a 25229i bk11: 384a 25506i bk12: 384a 25504i bk13: 384a 25036i bk14: 384a 25179i bk15: 368a 25212i 

------------------------------------------------------------------------

Row_Buffer_Locality = 0.969970
Row_Buffer_Locality_read = 0.973157
Row_Buffer_Locality_write = 0.927856
Bank_Level_Parallism = 3.047410
Bank_Level_Parallism_Col = 2.924378
Bank_Level_Parallism_Ready = 1.593783
write_to_read_ratio_blp_rw_average = 0.314370
GrpLevelPara = 2.268824 

BW Util details:
bwutil = 0.316785 
total_CMD = 27113 
util_bw = 8589 
Wasted_Col = 3744 
Wasted_Row = 407 
Idle = 14373 

BW Util Bottlenecks: 
RCDc_limit = 876 
RCDWRc_limit = 150 
WTRc_limit = 1174 
RTWc_limit = 3899 
CCDLc_limit = 2821 
rwq = 0 
CCDLc_limit_alone = 2125 
WTRc_limit_alone = 977 
RTWc_limit_alone = 3400 

Commands details: 
total_CMD = 27113 
n_nop = 18346 
Read = 6593 
Write = 0 
L2_Alloc = 0 
L2_WB = 1996 
n_act = 213 
n_pre = 197 
n_ref = 0 
n_req = 7096 
total_req = 8589 

Dual Bus Interface Util: 
issued_total_row = 410 
issued_total_col = 8589 
Row_Bus_Util =  0.015122 
CoL_Bus_Util = 0.316785 
Either_Row_CoL_Bus_Util = 0.323350 
Issued_on_Two_Bus_Simul_Util = 0.008557 
issued_two_Eff = 0.026463 
queue_avg = 7.679194 


dram_util_bins: 0 0 0 0 0 0 0 0 0 0
dram_eff_bins: 0 0 0 0 0 0 0 0 0 0
mrqq: max=64 avg=7.67919
Memory Partition 29: 
Cache L2_bank_058:

Cache L2_bank_059:

In Dram Latency Queue (total = 86): 
DRAM[29]: 16 bks, busW=16 BL=2 CL=12, tRRD=3 tCCD=1, tRCD=12 tRAS=28 tRP=12 tRC=40
n_cmd=27113 n_nop=18308 n_act=222 n_pre=206 n_ref_event=0 n_req=7099 n_rd=6597 n_rd_L2_A=0 n_write=0 n_wr_bk=2004 bw_util=0.3172
n_activity=14773 dram_eff=0.5822
bk0: 448a 25234i bk1: 448a 24580i bk2: 448a 24909i bk3: 448a 24558i bk4: 448a 25018i bk5: 448a 24923i bk6: 424a 25681i bk7: 429a 25334i bk8: 384a 24994i bk9: 384a 24935i bk10: 384a 25123i bk11: 384a 25395i bk12: 384a 25283i bk13: 384a 25147i bk14: 384a 25327i bk15: 368a 25316i 

------------------------------------------------------------------------

Row_Buffer_Locality = 0.968728
Row_Buffer_Locality_read = 0.971957
Row_Buffer_Locality_write = 0.926295
Bank_Level_Parallism = 3.067623
Bank_Level_Parallism_Col = 2.941210
Bank_Level_Parallism_Ready = 1.599349
write_to_read_ratio_blp_rw_average = 0.305671
GrpLevelPara = 2.254106 

BW Util details:
bwutil = 0.317228 
total_CMD = 27113 
util_bw = 8601 
Wasted_Col = 3737 
Wasted_Row = 424 
Idle = 14351 

BW Util Bottlenecks: 
RCDc_limit = 976 
RCDWRc_limit = 202 
WTRc_limit = 1146 
RTWc_limit = 3921 
CCDLc_limit = 2754 
rwq = 0 
CCDLc_limit_alone = 2089 
WTRc_limit_alone = 950 
RTWc_limit_alone = 3452 

Commands details: 
total_CMD = 27113 
n_nop = 18308 
Read = 6597 
Write = 0 
L2_Alloc = 0 
L2_WB = 2004 
n_act = 222 
n_pre = 206 
n_ref = 0 
n_req = 7099 
total_req = 8601 

Dual Bus Interface Util: 
issued_total_row = 428 
issued_total_col = 8601 
Row_Bus_Util =  0.015786 
CoL_Bus_Util = 0.317228 
Either_Row_CoL_Bus_Util = 0.324752 
Issued_on_Two_Bus_Simul_Util = 0.008262 
issued_two_Eff = 0.025440 
queue_avg = 7.424151 


dram_util_bins: 0 0 0 0 0 0 0 0 0 0
dram_eff_bins: 0 0 0 0 0 0 0 0 0 0
mrqq: max=64 avg=7.42415
Memory Partition 30: 
Cache L2_bank_060:

Cache L2_bank_061:

In Dram Latency Queue (total = 76): 
DRAM[30]: 16 bks, busW=16 BL=2 CL=12, tRRD=3 tCCD=1, tRCD=12 tRAS=28 tRP=12 tRC=40
n_cmd=27113 n_nop=18341 n_act=225 n_pre=210 n_ref_event=0 n_req=7085 n_rd=6592 n_rd_L2_A=0 n_write=0 n_wr_bk=1966 bw_util=0.3156
n_activity=14710 dram_eff=0.5818
bk0: 448a 25095i bk1: 448a 25063i bk2: 448a 24533i bk3: 448a 24455i bk4: 448a 24588i bk5: 448a 25120i bk6: 424a 25291i bk7: 424a 24983i bk8: 384a 24908i bk9: 384a 24899i bk10: 384a 25148i bk11: 384a 25383i bk12: 384a 25317i bk13: 384a 25125i bk14: 384a 25494i bk15: 368a 25361i 

------------------------------------------------------------------------

Row_Buffer_Locality = 0.968102
Row_Buffer_Locality_read = 0.971481
Row_Buffer_Locality_write = 0.922921
Bank_Level_Parallism = 3.171422
Bank_Level_Parallism_Col = 3.040972
Bank_Level_Parallism_Ready = 1.659734
write_to_read_ratio_blp_rw_average = 0.297310
GrpLevelPara = 2.272929 

BW Util details:
bwutil = 0.315642 
total_CMD = 27113 
util_bw = 8558 
Wasted_Col = 3664 
Wasted_Row = 431 
Idle = 14460 

BW Util Bottlenecks: 
RCDc_limit = 984 
RCDWRc_limit = 191 
WTRc_limit = 1296 
RTWc_limit = 3859 
CCDLc_limit = 2666 
rwq = 0 
CCDLc_limit_alone = 2012 
WTRc_limit_alone = 1119 
RTWc_limit_alone = 3382 

Commands details: 
total_CMD = 27113 
n_nop = 18341 
Read = 6592 
Write = 0 
L2_Alloc = 0 
L2_WB = 1966 
n_act = 225 
n_pre = 210 
n_ref = 0 
n_req = 7085 
total_req = 8558 

Dual Bus Interface Util: 
issued_total_row = 435 
issued_total_col = 8558 
Row_Bus_Util =  0.016044 
CoL_Bus_Util = 0.315642 
Either_Row_CoL_Bus_Util = 0.323535 
Issued_on_Two_Bus_Simul_Util = 0.008151 
issued_two_Eff = 0.025194 
queue_avg = 7.977834 


dram_util_bins: 0 0 0 0 0 0 0 0 0 0
dram_eff_bins: 0 0 0 0 0 0 0 0 0 0
mrqq: max=64 avg=7.97783
Memory Partition 31: 
Cache L2_bank_062:

Cache L2_bank_063:

In Dram Latency Queue (total = 66): 
DRAM[31]: 16 bks, busW=16 BL=2 CL=12, tRRD=3 tCCD=1, tRCD=12 tRAS=28 tRP=12 tRC=40
n_cmd=27113 n_nop=18329 n_act=231 n_pre=215 n_ref_event=0 n_req=7092 n_rd=6596 n_rd_L2_A=0 n_write=0 n_wr_bk=1979 bw_util=0.3163
n_activity=14728 dram_eff=0.5822
bk0: 448a 24824i bk1: 448a 24822i bk2: 448a 24857i bk3: 448a 24656i bk4: 448a 24964i bk5: 448a 25107i bk6: 424a 25376i bk7: 428a 25106i bk8: 384a 24962i bk9: 384a 25077i bk10: 384a 25140i bk11: 384a 25407i bk12: 384a 25166i bk13: 384a 24931i bk14: 384a 25122i bk15: 368a 25211i 

------------------------------------------------------------------------

Row_Buffer_Locality = 0.967423
Row_Buffer_Locality_read = 0.970891
Row_Buffer_Locality_write = 0.921212
Bank_Level_Parallism = 3.150588
Bank_Level_Parallism_Col = 3.017604
Bank_Level_Parallism_Ready = 1.695860
write_to_read_ratio_blp_rw_average = 0.296752
GrpLevelPara = 2.332274 

BW Util details:
bwutil = 0.316269 
total_CMD = 27113 
util_bw = 8575 
Wasted_Col = 3738 
Wasted_Row = 437 
Idle = 14363 

BW Util Bottlenecks: 
RCDc_limit = 940 
RCDWRc_limit = 194 
WTRc_limit = 1263 
RTWc_limit = 3677 
CCDLc_limit = 2635 
rwq = 0 
CCDLc_limit_alone = 2046 
WTRc_limit_alone = 1074 
RTWc_limit_alone = 3277 

Commands details: 
total_CMD = 27113 
n_nop = 18329 
Read = 6596 
Write = 0 
L2_Alloc = 0 
L2_WB = 1979 
n_act = 231 
n_pre = 215 
n_ref = 0 
n_req = 7092 
total_req = 8575 

Dual Bus Interface Util: 
issued_total_row = 446 
issued_total_col = 8575 
Row_Bus_Util =  0.016450 
CoL_Bus_Util = 0.316269 
Either_Row_CoL_Bus_Util = 0.323977 
Issued_on_Two_Bus_Simul_Util = 0.008741 
issued_two_Eff = 0.026981 
queue_avg = 7.821967 


dram_util_bins: 0 0 0 0 0 0 0 0 0 0
dram_eff_bins: 0 0 0 0 0 0 0 0 0 0
mrqq: max=64 avg=7.82197

========= L2 cache stats =========
L2_cache_bank[0]: Access = 14918, Miss = 5452, Miss_rate = 0.365, Pending_hits = 0, Reservation_fails = 0
L2_cache_bank[1]: Access = 14913, Miss = 5504, Miss_rate = 0.369, Pending_hits = 12, Reservation_fails = 36
L2_cache_bank[2]: Access = 15011, Miss = 5432, Miss_rate = 0.362, Pending_hits = 0, Reservation_fails = 0
L2_cache_bank[3]: Access = 15164, Miss = 5500, Miss_rate = 0.363, Pending_hits = 16, Reservation_fails = 10
L2_cache_bank[4]: Access = 15162, Miss = 5444, Miss_rate = 0.359, Pending_hits = 0, Reservation_fails = 0
L2_cache_bank[5]: Access = 15200, Miss = 5468, Miss_rate = 0.360, Pending_hits = 10, Reservation_fails = 4
L2_cache_bank[6]: Access = 15253, Miss = 5432, Miss_rate = 0.356, Pending_hits = 4, Reservation_fails = 0
L2_cache_bank[7]: Access = 15353, Miss = 5476, Miss_rate = 0.357, Pending_hits = 28, Reservation_fails = 0
L2_cache_bank[8]: Access = 15328, Miss = 5405, Miss_rate = 0.353, Pending_hits = 4, Reservation_fails = 0
L2_cache_bank[9]: Access = 15339, Miss = 5436, Miss_rate = 0.354, Pending_hits = 20, Reservation_fails = 40
L2_cache_bank[10]: Access = 15249, Miss = 5392, Miss_rate = 0.354, Pending_hits = 0, Reservation_fails = 0
L2_cache_bank[11]: Access = 15384, Miss = 5460, Miss_rate = 0.355, Pending_hits = 24, Reservation_fails = 0
L2_cache_bank[12]: Access = 15340, Miss = 5383, Miss_rate = 0.351, Pending_hits = 0, Reservation_fails = 0
L2_cache_bank[13]: Access = 15501, Miss = 5432, Miss_rate = 0.350, Pending_hits = 8, Reservation_fails = 0
L2_cache_bank[14]: Access = 15276, Miss = 5388, Miss_rate = 0.353, Pending_hits = 0, Reservation_fails = 0
L2_cache_bank[15]: Access = 15366, Miss = 5425, Miss_rate = 0.353, Pending_hits = 23, Reservation_fails = 0
L2_cache_bank[16]: Access = 15113, Miss = 5492, Miss_rate = 0.363, Pending_hits = 4, Reservation_fails = 0
L2_cache_bank[17]: Access = 15046, Miss = 5489, Miss_rate = 0.365, Pending_hits = 8, Reservation_fails = 0
L2_cache_bank[18]: Access = 15261, Miss = 5518, Miss_rate = 0.362, Pending_hits = 0, Reservation_fails = 0
L2_cache_bank[19]: Access = 15167, Miss = 5475, Miss_rate = 0.361, Pending_hits = 4, Reservation_fails = 0
L2_cache_bank[20]: Access = 15366, Miss = 5455, Miss_rate = 0.355, Pending_hits = 18, Reservation_fails = 0
L2_cache_bank[21]: Access = 15340, Miss = 5462, Miss_rate = 0.356, Pending_hits = 8, Reservation_fails = 0
L2_cache_bank[22]: Access = 15212, Miss = 5436, Miss_rate = 0.357, Pending_hits = 17, Reservation_fails = 0
L2_cache_bank[23]: Access = 15337, Miss = 5460, Miss_rate = 0.356, Pending_hits = 4, Reservation_fails = 0
L2_cache_bank[24]: Access = 15485, Miss = 5428, Miss_rate = 0.351, Pending_hits = 17, Reservation_fails = 0
L2_cache_bank[25]: Access = 15450, Miss = 5438, Miss_rate = 0.352, Pending_hits = 0, Reservation_fails = 0
L2_cache_bank[26]: Access = 15465, Miss = 5432, Miss_rate = 0.351, Pending_hits = 12, Reservation_fails = 0
L2_cache_bank[27]: Access = 15445, Miss = 5452, Miss_rate = 0.353, Pending_hits = 0, Reservation_fails = 0
L2_cache_bank[28]: Access = 15425, Miss = 5408, Miss_rate = 0.351, Pending_hits = 10, Reservation_fails = 0
L2_cache_bank[29]: Access = 15563, Miss = 5428, Miss_rate = 0.349, Pending_hits = 4, Reservation_fails = 0
L2_cache_bank[30]: Access = 15435, Miss = 5415, Miss_rate = 0.351, Pending_hits = 0, Reservation_fails = 0
L2_cache_bank[31]: Access = 15533, Miss = 5432, Miss_rate = 0.350, Pending_hits = 0, Reservation_fails = 0
L2_cache_bank[32]: Access = 15179, Miss = 5484, Miss_rate = 0.361, Pending_hits = 33, Reservation_fails = 0
L2_cache_bank[33]: Access = 14977, Miss = 5484, Miss_rate = 0.366, Pending_hits = 19, Reservation_fails = 7
L2_cache_bank[34]: Access = 15432, Miss = 5475, Miss_rate = 0.355, Pending_hits = 27, Reservation_fails = 0
L2_cache_bank[35]: Access = 15014, Miss = 5441, Miss_rate = 0.362, Pending_hits = 20, Reservation_fails = 0
L2_cache_bank[36]: Access = 15457, Miss = 5459, Miss_rate = 0.353, Pending_hits = 32, Reservation_fails = 0
L2_cache_bank[37]: Access = 15163, Miss = 5440, Miss_rate = 0.359, Pending_hits = 20, Reservation_fails = 0
L2_cache_bank[38]: Access = 15443, Miss = 5472, Miss_rate = 0.354, Pending_hits = 25, Reservation_fails = 0
L2_cache_bank[39]: Access = 15226, Miss = 5455, Miss_rate = 0.358, Pending_hits = 12, Reservation_fails = 37
L2_cache_bank[40]: Access = 15514, Miss = 5456, Miss_rate = 0.352, Pending_hits = 17, Reservation_fails = 0
L2_cache_bank[41]: Access = 15262, Miss = 5424, Miss_rate = 0.355, Pending_hits = 10, Reservation_fails = 0
L2_cache_bank[42]: Access = 15542, Miss = 5472, Miss_rate = 0.352, Pending_hits = 29, Reservation_fails = 0
L2_cache_bank[43]: Access = 15389, Miss = 5436, Miss_rate = 0.353, Pending_hits = 8, Reservation_fails = 0
L2_cache_bank[44]: Access = 15656, Miss = 5444, Miss_rate = 0.348, Pending_hits = 17, Reservation_fails = 0
L2_cache_bank[45]: Access = 15353, Miss = 5408, Miss_rate = 0.352, Pending_hits = 16, Reservation_fails = 0
L2_cache_bank[46]: Access = 15534, Miss = 5456, Miss_rate = 0.351, Pending_hits = 12, Reservation_fails = 0
L2_cache_bank[47]: Access = 15419, Miss = 5424, Miss_rate = 0.352, Pending_hits = 12, Reservation_fails = 0
L2_cache_bank[48]: Access = 15020, Miss = 5528, Miss_rate = 0.368, Pending_hits = 24, Reservation_fails = 0
L2_cache_bank[49]: Access = 14743, Miss = 5468, Miss_rate = 0.371, Pending_hits = 7, Reservation_fails = 0
L2_cache_bank[50]: Access = 15154, Miss = 5476, Miss_rate = 0.361, Pending_hits = 24, Reservation_fails = 0
L2_cache_bank[51]: Access = 14837, Miss = 5420, Miss_rate = 0.365, Pending_hits = 3, Reservation_fails = 0
L2_cache_bank[52]: Access = 15255, Miss = 5445, Miss_rate = 0.357, Pending_hits = 13, Reservation_fails = 0
L2_cache_bank[53]: Access = 14905, Miss = 5424, Miss_rate = 0.364, Pending_hits = 2, Reservation_fails = 0
L2_cache_bank[54]: Access = 15290, Miss = 5467, Miss_rate = 0.358, Pending_hits = 16, Reservation_fails = 0
L2_cache_bank[55]: Access = 15111, Miss = 5421, Miss_rate = 0.359, Pending_hits = 0, Reservation_fails = 0
L2_cache_bank[56]: Access = 15336, Miss = 5407, Miss_rate = 0.353, Pending_hits = 16, Reservation_fails = 0
L2_cache_bank[57]: Access = 15297, Miss = 5421, Miss_rate = 0.354, Pending_hits = 4, Reservation_fails = 0
L2_cache_bank[58]: Access = 15366, Miss = 5431, Miss_rate = 0.353, Pending_hits = 18, Reservation_fails = 0
L2_cache_bank[59]: Access = 15247, Miss = 5412, Miss_rate = 0.355, Pending_hits = 0, Reservation_fails = 0
L2_cache_bank[60]: Access = 15501, Miss = 5392, Miss_rate = 0.348, Pending_hits = 4, Reservation_fails = 0
L2_cache_bank[61]: Access = 15319, Miss = 5388, Miss_rate = 0.352, Pending_hits = 0, Reservation_fails = 0
L2_cache_bank[62]: Access = 15497, Miss = 5400, Miss_rate = 0.348, Pending_hits = 8, Reservation_fails = 0
L2_cache_bank[63]: Access = 15306, Miss = 5376, Miss_rate = 0.351, Pending_hits = 1, Reservation_fails = 0
L2_total_cache_accesses = 978144
L2_total_cache_misses = 348355
L2_total_cache_miss_rate = 0.3561
L2_total_cache_pending_hits = 704
L2_total_cache_reservation_fails = 134
L2_total_cache_breakdown:
	L2_cache_stats_breakdown[GLOBAL_ACC_R][HIT] = 629085
	L2_cache_stats_breakdown[GLOBAL_ACC_R][HIT_RESERVED] = 704
	L2_cache_stats_breakdown[GLOBAL_ACC_R][MISS] = 53360
	L2_cache_stats_breakdown[GLOBAL_ACC_R][RESERVATION_FAIL] = 134
	L2_cache_stats_breakdown[GLOBAL_ACC_R][SECTOR_MISS] = 160063
	L2_cache_stats_breakdown[LOCAL_ACC_R][HIT] = 0
	L2_cache_stats_breakdown[LOCAL_ACC_R][HIT_RESERVED] = 0
	L2_cache_stats_breakdown[LOCAL_ACC_R][MISS] = 0
	L2_cache_stats_breakdown[LOCAL_ACC_R][RESERVATION_FAIL] = 0
	L2_cache_stats_breakdown[LOCAL_ACC_R][SECTOR_MISS] = 0
	L2_cache_stats_breakdown[CONST_ACC_R][HIT] = 0
	L2_cache_stats_breakdown[CONST_ACC_R][HIT_RESERVED] = 0
	L2_cache_stats_breakdown[CONST_ACC_R][MISS] = 0
	L2_cache_stats_breakdown[CONST_ACC_R][RESERVATION_FAIL] = 0
	L2_cache_stats_breakdown[CONST_ACC_R][SECTOR_MISS] = 0
	L2_cache_stats_breakdown[TEXTURE_ACC_R][HIT] = 0
	L2_cache_stats_breakdown[TEXTURE_ACC_R][HIT_RESERVED] = 0
	L2_cache_stats_breakdown[TEXTURE_ACC_R][MISS] = 0
	L2_cache_stats_breakdown[TEXTURE_ACC_R][RESERVATION_FAIL] = 0
	L2_cache_stats_breakdown[TEXTURE_ACC_R][SECTOR_MISS] = 0
	L2_cache_stats_breakdown[GLOBAL_ACC_W][HIT] = 0
	L2_cache_stats_breakdown[GLOBAL_ACC_W][HIT_RESERVED] = 0
	L2_cache_stats_breakdown[GLOBAL_ACC_W][MISS] = 33744
	L2_cache_stats_breakdown[GLOBAL_ACC_W][RESERVATION_FAIL] = 0
	L2_cache_stats_breakdown[GLOBAL_ACC_W][SECTOR_MISS] = 101188
	L2_cache_stats_breakdown[LOCAL_ACC_W][HIT] = 0
	L2_cache_stats_breakdown[LOCAL_ACC_W][HIT_RESERVED] = 0
	L2_cache_stats_breakdown[LOCAL_ACC_W][MISS] = 0
	L2_cache_stats_breakdown[LOCAL_ACC_W][RESERVATION_FAIL] = 0
	L2_cache_stats_breakdown[LOCAL_ACC_W][SECTOR_MISS] = 0
	L2_cache_stats_breakdown[L1_WRBK_ACC][HIT] = 0
	L2_cache_stats_breakdown[L1_WRBK_ACC][HIT_RESERVED] = 0
	L2_cache_stats_breakdown[L1_WRBK_ACC][MISS] = 0
	L2_cache_stats_breakdown[L1_WRBK_ACC][RESERVATION_FAIL] = 0
	L2_cache_stats_breakdown[L1_WRBK_ACC][SECTOR_MISS] = 0
	L2_cache_stats_breakdown[L2_WRBK_ACC][HIT] = 0
	L2_cache_stats_breakdown[L2_WRBK_ACC][HIT_RESERVED] = 0
	L2_cache_stats_breakdown[L2_WRBK_ACC][MISS] = 0
	L2_cache_stats_breakdown[L2_WRBK_ACC][RESERVATION_FAIL] = 0
	L2_cache_stats_breakdown[L2_WRBK_ACC][SECTOR_MISS] = 0
	L2_cache_stats_breakdown[INST_ACC_R][HIT] = 0
	L2_cache_stats_breakdown[INST_ACC_R][HIT_RESERVED] = 0
	L2_cache_stats_breakdown[INST_ACC_R][MISS] = 0
	L2_cache_stats_breakdown[INST_ACC_R][RESERVATION_FAIL] = 0
	L2_cache_stats_breakdown[INST_ACC_R][SECTOR_MISS] = 0
	L2_cache_stats_breakdown[L1_WR_ALLOC_R][HIT] = 0
	L2_cache_stats_breakdown[L1_WR_ALLOC_R][HIT_RESERVED] = 0
	L2_cache_stats_breakdown[L1_WR_ALLOC_R][MISS] = 0
	L2_cache_stats_breakdown[L1_WR_ALLOC_R][RESERVATION_FAIL] = 0
	L2_cache_stats_breakdown[L1_WR_ALLOC_R][SECTOR_MISS] = 0
	L2_cache_stats_breakdown[L2_WR_ALLOC_R][HIT] = 0
	L2_cache_stats_breakdown[L2_WR_ALLOC_R][HIT_RESERVED] = 0
	L2_cache_stats_breakdown[L2_WR_ALLOC_R][MISS] = 0
	L2_cache_stats_breakdown[L2_WR_ALLOC_R][RESERVATION_FAIL] = 0
	L2_cache_stats_breakdown[L2_WR_ALLOC_R][SECTOR_MISS] = 0
	L2_cache_stats_breakdown[GLOBAL_ACC_R][TOTAL_ACCESS] = 843212
	L2_cache_stats_breakdown[GLOBAL_ACC_W][TOTAL_ACCESS] = 134932
L2_total_cache_reservation_fail_breakdown:
	L2_cache_stats_fail_breakdown[GLOBAL_ACC_R][MSHR_ENRTY_FAIL] = 134
L2_cache_data_port_util = 0.287
L2_cache_fill_port_util = 0.092

icnt_total_pkts_mem_to_simt=976047
icnt_total_pkts_simt_to_mem=989139
LD_mem_lat_dist  0 0 0 0 0 0 0 0 0 0 0 0 0 0 0 0 0 0 0 0 0 0 0 0 0 0 0
ST_mem_lat_dist  0 0 0 0 0 0 0 0 0 0 0 0 0 0 0 0 0 0 0 0 0 0 0 0 0 0 0
----------------------------Interconnect-DETAILS--------------------------------
Req_Network_injected_packets_num = 989139
Req_Network_cycles = 36109
Req_Network_injected_packets_per_cycle =      27.3931 
Req_Network_conflicts_per_cycle =      37.2243
Req_Network_conflicts_per_cycle_util =      43.9704
Req_Bank_Level_Parallism =      32.2041
Req_Network_in_buffer_full_per_cycle =       0.0000
Req_Network_in_buffer_avg_util =      86.9711
Req_Network_out_buffer_full_per_cycle =       0.0000
Req_Network_out_buffer_avg_util =       0.4312

Reply_Network_injected_packets_num = 976146
Reply_Network_cycles = 36109
Reply_Network_injected_packets_per_cycle =       27.0333
Reply_Network_conflicts_per_cycle =       12.2936
Reply_Network_conflicts_per_cycle_util =      15.1226
Reply_Bank_Level_Parallism =      33.2520
Reply_Network_in_buffer_full_per_cycle =       0.0000
Reply_Network_in_buffer_avg_util =       6.9242
Reply_Network_out_buffer_full_per_cycle =       0.0000
Reply_Network_out_buffer_avg_util =       0.3379
----------------------------END-of-Interconnect-DETAILS-------------------------


gpgpu_simulation_time = 0 days, 0 hrs, 7 min, 44 sec (464 sec)
gpgpu_simulation_rate = 135161 (inst/sec)
gpgpu_simulation_rate = 77 (cycle/sec)
gpgpu_silicon_slowdown = 14701298x
GPGPU-Sim: *** simulation thread exiting ***
GPGPU-Sim: ** break due to reaching the maximum cycles (or instructions) **
GPGPU-Sim: *** exit detected ***
