

        *** GPGPU-Sim Simulator Version 4.0.0  [build gpgpu-sim_git-commit-ffe0a1a00e984ecce9bf36e17ab94c4de0de8108_modified_0.0] ***


GPGPU-Sim PTX: simulation mode 0 (can change with PTX_SIM_MODE_FUNC environment variable:
               1=functional simulation only, 0=detailed performance simulator)
GPGPU-Sim PTX: overriding embedded ptx with ptx file (PTX_SIM_USE_PTX_FILE is set)
GPGPU-Sim: Configuration options:

-save_embedded_ptx                      0 # saves ptx files embedded in binary as <n>.ptx
-keep                                   0 # keep intermediate files created by GPGPU-Sim when interfacing with external programs
-gpgpu_ptx_save_converted_ptxplus                    0 # Saved converted ptxplus to a file
-gpgpu_occupancy_sm_number                   70 # The SM number to pass to ptxas when getting register usage for computing GPU occupancy. This parameter is required in the config.
-ptx_opcode_latency_int      4,13,4,5,145,21 # Opcode latencies for integers <ADD,MAX,MUL,MAD,DIV,SHFL>Default 1,1,19,25,145,32
-ptx_opcode_latency_fp          4,13,4,5,39 # Opcode latencies for single precision floating points <ADD,MAX,MUL,MAD,DIV>Default 1,1,1,1,30
-ptx_opcode_latency_dp         8,19,8,8,330 # Opcode latencies for double precision floating points <ADD,MAX,MUL,MAD,DIV>Default 8,8,8,8,335
-ptx_opcode_latency_sfu                  100 # Opcode latencies for SFU instructionsDefault 8
-ptx_opcode_latency_tesnor                   64 # Opcode latencies for Tensor instructionsDefault 64
-ptx_opcode_initiation_int          2,2,2,2,8,4 # Opcode initiation intervals for integers <ADD,MAX,MUL,MAD,DIV,SHFL>Default 1,1,4,4,32,4
-ptx_opcode_initiation_fp            2,2,2,2,4 # Opcode initiation intervals for single precision floating points <ADD,MAX,MUL,MAD,DIV>Default 1,1,1,1,5
-ptx_opcode_initiation_dp          4,4,4,4,130 # Opcode initiation intervals for double precision floating points <ADD,MAX,MUL,MAD,DIV>Default 8,8,8,8,130
-ptx_opcode_initiation_sfu                    8 # Opcode initiation intervals for sfu instructionsDefault 8
-ptx_opcode_initiation_tensor                   64 # Opcode initiation intervals for tensor instructionsDefault 64
-cdp_latency         7200,8000,100,12000,1600 # CDP API latency <cudaStreamCreateWithFlags, cudaGetParameterBufferV2_init_perWarp, cudaGetParameterBufferV2_perKernel, cudaLaunchDeviceV2_init_perWarp, cudaLaunchDevicV2_perKernel>Default 7200,8000,100,12000,1600
-network_mode                           2 # Interconnection network mode
-inter_config_file                   mesh # Interconnection network config file
-icnt_in_buffer_limit                  512 # in_buffer_limit
-icnt_out_buffer_limit                  512 # out_buffer_limit
-icnt_subnets                           2 # subnets
-icnt_arbiter_algo                      1 # arbiter_algo
-icnt_verbose                           0 # inct_verbose
-icnt_grant_cycles                      1 # grant_cycles
-gpgpu_ptx_use_cuobjdump                    1 # Use cuobjdump to extract ptx and sass from binaries
-gpgpu_experimental_lib_support                    0 # Try to extract code from cuda libraries [Broken because of unknown cudaGetExportTable]
-checkpoint_option                      0 #  checkpointing flag (0 = no checkpoint)
-checkpoint_kernel                      1 #  checkpointing during execution of which kernel (1- 1st kernel)
-checkpoint_CTA                         0 #  checkpointing after # of CTA (< less than total CTA)
-resume_option                          0 #  resume flag (0 = no resume)
-resume_kernel                          0 #  Resume from which kernel (1= 1st kernel)
-resume_CTA                             0 #  resume from which CTA 
-checkpoint_CTA_t                       0 #  resume from which CTA 
-checkpoint_insn_Y                      0 #  resume from which CTA 
-gpgpu_ptx_convert_to_ptxplus                    0 # Convert SASS (native ISA) to ptxplus and run ptxplus
-gpgpu_ptx_force_max_capability                   70 # Force maximum compute capability
-gpgpu_ptx_inst_debug_to_file                    0 # Dump executed instructions' debug information to file
-gpgpu_ptx_inst_debug_file       inst_debug.txt # Executed instructions' debug output file
-gpgpu_ptx_inst_debug_thread_uid                    1 # Thread UID for executed instructions' debug output
-gpgpu_n_mem_for_l2wb_pcommit                   32 # number of memory modules (e.g. memory controllers) in gpu
-gpgpu_n_sub_partition_per_mchannel_for_l2wb_pcommit                    2 # number of memory subpartition in each memory module
-gpgpu_dl2_bsize_for_l2wb_pcommit                  128 # default 128 bytes
-gpgpu_simd_model                       1 # 1 = post-dominator
-gpgpu_shader_core_pipeline              2048:32 # shader core pipeline config, i.e., {<nthread>:<warpsize>}
-gpgpu_tex_cache:l1  N:4:128:256,L:R:m:N:L,T:512:8,128:2 # per-shader L1 texture cache  (READ-ONLY) config  {<nsets>:<bsize>:<assoc>,<rep>:<wr>:<alloc>:<wr_alloc>,<mshr>:<N>:<merge>,<mq>:<rf>}
-gpgpu_const_cache:l1 N:128:64:8,L:R:f:N:L,S:2:64,4 # per-shader L1 constant memory cache  (READ-ONLY) config  {<nsets>:<bsize>:<assoc>,<rep>:<wr>:<alloc>:<wr_alloc>,<mshr>:<N>:<merge>,<mq>} 
-gpgpu_cache:il1     N:64:128:16,L:R:f:N:L,S:2:48,4 # shader L1 instruction cache config  {<nsets>:<bsize>:<assoc>,<rep>:<wr>:<alloc>:<wr_alloc>,<mshr>:<N>:<merge>,<mq>} 
-gpgpu_cache:dl1     S:1:128:256,L:L:s:N:L,A:256:8,16:0,32 # per-shader L1 data cache config  {<nsets>:<bsize>:<assoc>,<rep>:<wr>:<alloc>:<wr_alloc>,<mshr>:<N>:<merge>,<mq> | none}
-gpgpu_l1_banks                         4 # The number of L1 cache banks
-gpgpu_l1_banks_byte_interleaving                   32 # l1 banks byte interleaving granularity
-gpgpu_l1_banks_hashing_function                    0 # l1 banks hashing function
-gpgpu_l1_latency                      20 # L1 Hit Latency
-gpgpu_smem_latency                    20 # smem Latency
-gpgpu_cache:dl1PrefL1                 none # per-shader L1 data cache config  {<nsets>:<bsize>:<assoc>,<rep>:<wr>:<alloc>:<wr_alloc>,<mshr>:<N>:<merge>,<mq> | none}
-gpgpu_cache:dl1PrefShared                 none # per-shader L1 data cache config  {<nsets>:<bsize>:<assoc>,<rep>:<wr>:<alloc>:<wr_alloc>,<mshr>:<N>:<merge>,<mq> | none}
-gpgpu_gmem_skip_L1D                    0 # global memory access skip L1D cache (implements -Xptxas -dlcm=cg, default=no skip)
-gpgpu_perfect_mem                      0 # enable perfect memory mode (no cache miss)
-n_regfile_gating_group                    4 # group of lanes that should be read/written together)
-gpgpu_clock_gated_reg_file                    0 # enable clock gated reg file for power calculations
-gpgpu_clock_gated_lanes                    0 # enable clock gated lanes for power calculations
-gpgpu_shader_registers                65536 # Number of registers per shader core. Limits number of concurrent CTAs. (default 8192)
-gpgpu_registers_per_block                65536 # Maximum number of registers per CTA. (default 8192)
-gpgpu_ignore_resources_limitation                    0 # gpgpu_ignore_resources_limitation (default 0)
-gpgpu_shader_cta                      32 # Maximum number of concurrent CTAs in shader (default 8)
-gpgpu_num_cta_barriers                   16 # Maximum number of named barriers per CTA (default 16)
-gpgpu_n_clusters                      80 # number of processing clusters
-gpgpu_n_cores_per_cluster                    1 # number of simd cores per cluster
-gpgpu_n_cluster_ejection_buffer_size                   32 # number of packets in ejection buffer
-gpgpu_n_ldst_response_buffer_size                    2 # number of response packets in ld/st unit ejection buffer
-gpgpu_shmem_per_block                65536 # Size of shared memory per thread block or CTA (default 48kB)
-gpgpu_shmem_size                   98304 # Size of shared memory per shader core (default 16kB)
-gpgpu_adaptive_cache_config            536870913 # adaptive_cache_config
-gpgpu_shmem_sizeDefault                98304 # Size of shared memory per shader core (default 16kB)
-gpgpu_shmem_size_PrefL1                16384 # Size of shared memory per shader core (default 16kB)
-gpgpu_shmem_size_PrefShared                16384 # Size of shared memory per shader core (default 16kB)
-gpgpu_shmem_num_banks                   32 # Number of banks in the shared memory in each shader core (default 16)
-gpgpu_shmem_limited_broadcast                    0 # Limit shared memory to do one broadcast per cycle (default on)
-gpgpu_shmem_warp_parts                    1 # Number of portions a warp is divided into for shared memory bank conflict check 
-gpgpu_mem_unit_ports                    1 # The number of memory transactions allowed per core cycle
-gpgpu_shmem_warp_parts                    1 # Number of portions a warp is divided into for shared memory bank conflict check 
-gpgpu_warpdistro_shader                   -1 # Specify which shader core to collect the warp size distribution from
-gpgpu_warp_issue_shader                    0 # Specify which shader core to collect the warp issue distribution from
-gpgpu_local_mem_map                    1 # Mapping from local memory space address to simulated GPU physical address space (default = enabled)
-gpgpu_num_reg_banks                   16 # Number of register banks (default = 8)
-gpgpu_reg_bank_use_warp_id                    0 # Use warp ID in mapping registers to banks (default = off)
-gpgpu_sub_core_model                    1 # Sub Core Volta/Pascal model (default = off)
-gpgpu_enable_specialized_operand_collector                    0 # enable_specialized_operand_collector
-gpgpu_operand_collector_num_units_sp                    4 # number of collector units (default = 4)
-gpgpu_operand_collector_num_units_dp                    0 # number of collector units (default = 0)
-gpgpu_operand_collector_num_units_sfu                    4 # number of collector units (default = 4)
-gpgpu_operand_collector_num_units_int                    0 # number of collector units (default = 0)
-gpgpu_operand_collector_num_units_tensor_core                    4 # number of collector units (default = 4)
-gpgpu_operand_collector_num_units_mem                    2 # number of collector units (default = 2)
-gpgpu_operand_collector_num_units_gen                    8 # number of collector units (default = 0)
-gpgpu_operand_collector_num_in_ports_sp                    1 # number of collector unit in ports (default = 1)
-gpgpu_operand_collector_num_in_ports_dp                    0 # number of collector unit in ports (default = 0)
-gpgpu_operand_collector_num_in_ports_sfu                    1 # number of collector unit in ports (default = 1)
-gpgpu_operand_collector_num_in_ports_int                    0 # number of collector unit in ports (default = 0)
-gpgpu_operand_collector_num_in_ports_tensor_core                    1 # number of collector unit in ports (default = 1)
-gpgpu_operand_collector_num_in_ports_mem                    1 # number of collector unit in ports (default = 1)
-gpgpu_operand_collector_num_in_ports_gen                    8 # number of collector unit in ports (default = 0)
-gpgpu_operand_collector_num_out_ports_sp                    1 # number of collector unit in ports (default = 1)
-gpgpu_operand_collector_num_out_ports_dp                    0 # number of collector unit in ports (default = 0)
-gpgpu_operand_collector_num_out_ports_sfu                    1 # number of collector unit in ports (default = 1)
-gpgpu_operand_collector_num_out_ports_int                    0 # number of collector unit in ports (default = 0)
-gpgpu_operand_collector_num_out_ports_tensor_core                    1 # number of collector unit in ports (default = 1)
-gpgpu_operand_collector_num_out_ports_mem                    1 # number of collector unit in ports (default = 1)
-gpgpu_operand_collector_num_out_ports_gen                    8 # number of collector unit in ports (default = 0)
-gpgpu_coalesce_arch                   60 # Coalescing arch (GT200 = 13, Fermi = 20)
-gpgpu_num_sched_per_core                    4 # Number of warp schedulers per core
-gpgpu_max_insn_issue_per_warp                    1 # Max number of instructions that can be issued per warp in one cycle by scheduler (either 1 or 2)
-gpgpu_dual_issue_diff_exec_units                    1 # should dual issue use two different execution unit resources (Default = 1)
-gpgpu_simt_core_sim_order                    1 # Select the simulation order of cores in a cluster (0=Fix, 1=Round-Robin)
-gpgpu_pipeline_widths 4,4,4,4,4,4,4,4,4,4,8,4,4 # Pipeline widths ID_OC_SP,ID_OC_DP,ID_OC_INT,ID_OC_SFU,ID_OC_MEM,OC_EX_SP,OC_EX_DP,OC_EX_INT,OC_EX_SFU,OC_EX_MEM,EX_WB,ID_OC_TENSOR_CORE,OC_EX_TENSOR_CORE
-gpgpu_tensor_core_avail                    1 # Tensor Core Available (default=0)
-gpgpu_num_sp_units                     4 # Number of SP units (default=1)
-gpgpu_num_dp_units                     4 # Number of DP units (default=0)
-gpgpu_num_int_units                    4 # Number of INT units (default=0)
-gpgpu_num_sfu_units                    4 # Number of SF units (default=1)
-gpgpu_num_tensor_core_units                    4 # Number of tensor_core units (default=1)
-gpgpu_num_mem_units                    1 # Number if ldst units (default=1) WARNING: not hooked up to anything
-gpgpu_scheduler                      gto # Scheduler configuration: < lrr | gto | two_level_active > If two_level_active:<num_active_warps>:<inner_prioritization>:<outer_prioritization>For complete list of prioritization values see shader.h enum scheduler_prioritization_typeDefault: gto
-gpgpu_concurrent_kernel_sm                    0 # Support concurrent kernels on a SM (default = disabled)
-gpgpu_perfect_inst_const_cache                    1 # perfect inst and const cache mode, so all inst and const hits in the cache(default = disabled)
-gpgpu_inst_fetch_throughput                    4 # the number of fetched intruction per warp each cycle
-gpgpu_reg_file_port_throughput                    2 # the number ports of the register file
-specialized_unit_1         0,4,4,4,4,BRA # specialized unit config {<enabled>,<num_units>:<latency>:<initiation>,<ID_OC_SPEC>:<OC_EX_SPEC>,<NAME>}
-specialized_unit_2         0,4,4,4,4,BRA # specialized unit config {<enabled>,<num_units>:<latency>:<initiation>,<ID_OC_SPEC>:<OC_EX_SPEC>,<NAME>}
-specialized_unit_3         0,4,4,4,4,BRA # specialized unit config {<enabled>,<num_units>:<latency>:<initiation>,<ID_OC_SPEC>:<OC_EX_SPEC>,<NAME>}
-specialized_unit_4         0,4,4,4,4,BRA # specialized unit config {<enabled>,<num_units>:<latency>:<initiation>,<ID_OC_SPEC>:<OC_EX_SPEC>,<NAME>}
-specialized_unit_5         0,4,4,4,4,BRA # specialized unit config {<enabled>,<num_units>:<latency>:<initiation>,<ID_OC_SPEC>:<OC_EX_SPEC>,<NAME>}
-specialized_unit_6         0,4,4,4,4,BRA # specialized unit config {<enabled>,<num_units>:<latency>:<initiation>,<ID_OC_SPEC>:<OC_EX_SPEC>,<NAME>}
-specialized_unit_7         0,4,4,4,4,BRA # specialized unit config {<enabled>,<num_units>:<latency>:<initiation>,<ID_OC_SPEC>:<OC_EX_SPEC>,<NAME>}
-specialized_unit_8         0,4,4,4,4,BRA # specialized unit config {<enabled>,<num_units>:<latency>:<initiation>,<ID_OC_SPEC>:<OC_EX_SPEC>,<NAME>}
-gpgpu_perf_sim_memcpy                    1 # Fill the L2 cache on memcpy
-gpgpu_simple_dram_model                    0 # simple_dram_model with fixed latency and BW
-gpgpu_dram_scheduler                    1 # 0 = fifo, 1 = FR-FCFS (defaul)
-gpgpu_dram_partition_queues          64:64:64:64 # i2$:$2d:d2$:$2i
-l2_ideal                               0 # Use a ideal L2 cache that always hit
-gpgpu_cache:dl2     S:32:128:24,L:B:m:L:P,A:192:4,32:0,32 # unified banked L2 data cache config  {<nsets>:<bsize>:<assoc>,<rep>:<wr>:<alloc>:<wr_alloc>,<mshr>:<N>:<merge>,<mq>}
-gpgpu_cache:dl2_texture_only                    0 # L2 cache used for texture only
-gpgpu_n_mem                           32 # number of memory modules (e.g. memory controllers) in gpu
-gpgpu_n_sub_partition_per_mchannel                    2 # number of memory subpartition in each memory module
-gpgpu_n_mem_per_ctrlr                    1 # number of memory chips per memory controller
-gpgpu_memlatency_stat                   14 # track and display latency statistics 0x2 enables MC, 0x4 enables queue logs
-gpgpu_frfcfs_dram_sched_queue_size                   64 # 0 = unlimited (default); # entries per chip
-gpgpu_dram_return_queue_size                  192 # 0 = unlimited (default); # entries per chip
-gpgpu_dram_buswidth                   16 # default = 4 bytes (8 bytes per cycle at DDR)
-gpgpu_dram_burst_length                    2 # Burst length of each DRAM request (default = 4 data bus cycle)
-dram_data_command_freq_ratio                    2 # Frequency ratio between DRAM data bus and command bus (default = 2 times, i.e. DDR)
-gpgpu_dram_timing_opt nbk=16:CCD=1:RRD=3:RCD=12:RAS=28:RP=12:RC=40: CL=12:WL=2:CDLR=3:WR=10:nbkgrp=4:CCDL=2:RTPL=3 # DRAM timing parameters = {nbk:tCCD:tRRD:tRCD:tRAS:tRP:tRC:CL:WL:tCDLR:tWR:nbkgrp:tCCDL:tRTPL}
-gpgpu_l2_rop_latency                  160 # ROP queue latency (default 85)
-dram_latency                         200 # DRAM latency (default 30)
-dram_write_latency                   600 # DRAM write latency (default 100)
-dram_dual_bus_interface                    1 # dual_bus_interface (default = 0) 
-dram_bnk_indexing_policy                    0 # dram_bnk_indexing_policy (0 = normal indexing, 1 = Xoring with the higher bits) (Default = 0)
-dram_bnkgrp_indexing_policy                    1 # dram_bnkgrp_indexing_policy (0 = take higher bits, 1 = take lower bits) (Default = 0)
-dram_seperate_write_queue_enable                    0 # Seperate_Write_Queue_Enable
-dram_write_queue_size             32:28:16 # Write_Queue_Size
-dram_elimnate_rw_turnaround                    0 # elimnate_rw_turnaround i.e set tWTR and tRTW = 0
-icnt_flit_size                        40 # icnt_flit_size
-gpgpu_mem_addr_mapping dramid@8;00000000.00000000.00000000.00000000.0000RRRR.RRRRRRRR.RBBBCCCB.CCCSSSSS # mapping memory address to dram model {dramid@<start bit>;<memory address map>}
-gpgpu_mem_addr_test                    0 # run sweep test to check address mapping for aliased address
-gpgpu_mem_address_mask                    1 # 0 = old addressing mask, 1 = new addressing mask, 2 = new add. mask + flipped bank sel and chip sel bits
-gpgpu_memory_partition_indexing                    0 # 0 = no indexing, 1 = bitwise xoring, 2 = IPoly, 3 = custom indexing
-gpuwattch_xml_file         gpuwattch.xml # GPUWattch XML file
-power_simulation_enabled                    0 # Turn on power simulator (1=On, 0=Off)
-power_per_cycle_dump                    0 # Dump detailed power output each cycle
-power_trace_enabled                    0 # produce a file for the power trace (1=On, 0=Off)
-power_trace_zlevel                     6 # Compression level of the power trace output log (0=no comp, 9=highest)
-steady_power_levels_enabled                    0 # produce a file for the steady power levels (1=On, 0=Off)
-steady_state_definition                  8:4 # allowed deviation:number of samples
-gpgpu_max_cycle                        0 # terminates gpu simulation early (0 = no limit)
-gpgpu_max_insn                         0 # terminates gpu simulation early (0 = no limit)
-gpgpu_max_cta                          0 # terminates gpu simulation early (0 = no limit)
-gpgpu_max_completed_cta                 2048 # terminates gpu simulation early (0 = no limit)
-gpgpu_runtime_stat                   500 # display runtime statistics such as dram utilization {<freq>:<flag>}
-liveness_message_freq                    1 # Minimum number of seconds between simulation liveness messages (0 = always print)
-gpgpu_compute_capability_major                    7 # Major compute capability version number
-gpgpu_compute_capability_minor                    0 # Minor compute capability version number
-gpgpu_flush_l1_cache                    1 # Flush L1 cache at the end of each kernel call
-gpgpu_flush_l2_cache                    0 # Flush L2 cache at the end of each kernel call
-gpgpu_deadlock_detect                    1 # Stop the simulation at deadlock (1=on (default), 0=off)
-gpgpu_ptx_instruction_classification                    0 # if enabled will classify ptx instruction types per kernel (Max 255 kernels now)
-gpgpu_ptx_sim_mode                     0 # Select between Performance (default) or Functional simulation (1)
-gpgpu_clock_domains 1132.0:1132.0:1132.0:850.0 # Clock Domain Frequencies in MhZ {<Core Clock>:<ICNT Clock>:<L2 Clock>:<DRAM Clock>}
-gpgpu_max_concurrent_kernel                    8 # maximum kernels that can run concurrently on GPU
-gpgpu_cflog_interval                    0 # Interval between each snapshot in control flow logger
-visualizer_enabled               ef36522e2d45247004aa03edb85bd63f  /home/pli11/Videos/parboil_benchmark/parboil/benchmarks/stencil/build/nvm_default/stencil
Extracting PTX file and ptxas options    1: stencil.1.sm_70.ptx -arch=sm_70
      0 # Turn on visualizer output (1=On, 0=Off)
-visualizer_outputfile                 NULL # Specifies the output log file for visualizer
-visualizer_zlevel                      6 # Compression level of the visualizer output log (0=no comp, 9=highest)
-gpgpu_stack_size_limit                 1024 # GPU thread stack size
-gpgpu_heap_size_limit              8388608 # GPU malloc heap size 
-gpgpu_runtime_sync_depth_limit                    2 # GPU device runtime synchronize depth
-gpgpu_runtime_pending_launch_count_limit                 2048 # GPU device runtime pending launch count
-trace_enabled                          0 # Turn on traces
-trace_components                    none # comma seperated list of traces to enable. Complete list found in trace_streams.tup. Default none
-trace_sampling_core                    0 # The core which is printed using CORE_DPRINTF. Default 0
-trace_sampling_memory_partition                   -1 # The memory partition which is printed using MEMPART_DPRINTF. Default -1 (i.e. all)
-enable_ptx_file_line_stats                    1 # Turn on PTX source line statistic profiling. (1 = On)
-ptx_line_stats_filename gpgpu_inst_stats.txt # Output file for PTX source line statistics.
-gpgpu_kernel_launch_latency                 5000 # Kernel launch latency in cycles. Default: 0
-gpgpu_cdp_enabled                      0 # Turn on CDP
-gpgpu_TB_launch_latency                    0 # thread block launch latency in cycles. Default: 0
DRAM Timing Options:
nbk                                    16 # number of banks
CCD                                     1 # column to column delay
RRD                                     3 # minimal delay between activation of rows in different banks
RCD                                    12 # row to column delay
RAS                                    28 # time needed to activate row
RP                                     12 # time needed to precharge (deactivate) row
RC                                     40 # row cycle time
CDLR                                    3 # switching from write to read (changes tWTR)
WR                                     10 # last data-in to row precharge
CL                                     12 # CAS latency
WL                                      2 # Write latency
nbkgrp                                  4 # number of bank groups
CCDL                                    2 # column to column delay between accesses to different bank groups
RTPL                                    3 # read to precharge delay between accesses to different bank groups
Total number of memory sub partition = 64
addr_dec_mask[CHIP]  = 0000000000001f00 	high:13 low:8
addr_dec_mask[BK]    = 00000000000e2000 	high:20 low:13
addr_dec_mask[ROW]   = 00000001fff00000 	high:33 low:20
addr_dec_mask[COL]   = 000000000001c0ff 	high:17 low:0
addr_dec_mask[BURST] = 000000000000001f 	high:5 low:0
sub_partition_id_mask = 0000000000002000
GPGPU-Sim uArch: clock freqs: 1132000000.000000:1132000000.000000:1132000000.000000:850000000.000000
GPGPU-Sim uArch: clock periods: 0.00000000088339222615:0.00000000088339222615:0.00000000088339222615:0.00000000117647058824
*** Initializing Memory Statistics ***
GPGPU-Sim uArch: performance model initialization complete.
self exe links to: /home/pli11/Videos/parboil_benchmark/parboil/benchmarks/stencil/build/nvm_default/stencil
self exe links to: /home/pli11/Videos/parboil_benchmark/parboil/benchmarks/stencil/build/nvm_default/stencil
10.1
GPGPU-Sim PTX: __cudaRegisterFatBinary, fat_cubin_handle = 1, filename=default
self exe links to: /home/pli11/Videos/parboil_benchmark/parboil/benchmarks/stencil/build/nvm_default/stencil
Running md5sum using "md5sum /home/pli11/Videos/parboil_benchmark/parboil/benchmarks/stencil/build/nvm_default/stencil "
self exe links to: /home/pli11/Videos/parboil_benchmark/parboil/benchmarks/stencil/build/nvm_default/stencil
Extracting specific PTX file named stencil.1.sm_70.ptx 
GPGPU-Sim PTX: __cudaRegisterFunction _Z17naive_kernel_nvm5ffPfS_iii : hostFun 0x0x403527, fat_cubin_handle = 1
GPGPU-Sim PTX: Parsing stencil.1.sm_70.ptx
GPGPU-Sim PTX: allocating global region for "NVM_log" from 0x100 to 0x4000100 (global memory space)
GPGPU-Sim PTX: allocating global region for "NVM_flag" from 0x4000100 to 0x4400100 (global memory space)
GPGPU-Sim PTX: instruction assembly for function '_Z12naive_kernelffPfS_iii'...   done.
GPGPU-Sim PTX: instruction assembly for function '_Z17naive_kernel_nvmbffPfS_iii'...   done.
GPGPU-Sim PTX: instruction assembly for function '_Z17naive_kernel_nvmoffPfS_iii'...   done.
GPGPU-Sim PTX: instruction assembly for function '_Z17naive_kernel_nvmuffPfS_iii'...   done.
GPGPU-Sim PTX: instruction assembly for function '_Z17naive_kernel_nvm1ffPfS_iii'...   done.
GPGPU-Sim PTX: instruction assembly for function '_Z17naive_kernel_nvm2ffPfS_iii'...   done.
GPGPU-Sim PTX: instruction assembly for function '_Z17naive_kernel_nvmgffPfS_iii'...   done.
GPGPU-Sim PTX: instruction assembly for function '_Z17naive_kernel_nvm3ffPfS_iii'...   done.
GPGPU-Sim PTX: instruction assembly for function '_Z17naive_kernel_nvm4ffPfS_iii'...   done.
GPGPU-Sim PTX: instruction assembly for function '_Z17naive_kernel_nvmiffPfS_iii'...   done.
GPGPU-Sim PTX: instruction assembly for function '_Z17naive_kernel_nvm6ffPfS_iii'...   done.
GPGPU-Sim PTX: instruction assembly for function '_Z17naive_kernel_nvm5ffPfS_iii'...   done.
GPGPU-Sim PTX: finished parsing EMBEDDED .ptx file stencil.1.sm_70.ptx
GPGPU-Sim PTX: loading globals with explicit initializers... 
GPGPU-Sim PTX: finished loading globals (0 bytes total).
GPGPU-Sim PTX: loading constants with explicit initializers...  done.
GPGPU-Sim PTX: Loading PTXInfo from stencil.1.sm_70.ptx
GPGPU-Sim PTX: Kernel '_Z17naive_kernel_nvm5ffPfS_iii' : regs=21, lmem=0, smem=0, cmem=388
GPGPU-Sim PTX: Kernel '_Z17naive_kernel_nvm6ffPfS_iii' : regs=21, lmem=0, smem=0, cmem=388
GPGPU-Sim PTX: Kernel '_Z17naive_kernel_nvmiffPfS_iii' : regs=21, lmem=0, smem=0, cmem=388
GPGPU-Sim PTX: Kernel '_Z17naive_kernel_nvm4ffPfS_iii' : regs=23, lmem=0, smem=0, cmem=388
GPGPU-Sim PTX: Kernel '_Z17naive_kernel_nvm3ffPfS_iii' : regs=23, lmem=0, smem=0, cmem=388
GPGPU-Sim PTX: Kernel '_Z17naive_kernel_nvmgffPfS_iii' : regs=23, lmem=0, smem=0, cmem=388
GPGPU-Sim PTX: Kernel '_Z17naive_kernel_nvm2ffPfS_iii' : regs=22, lmem=0, smem=0, cmem=388
GPGPU-Sim PTX: Kernel '_Z17naive_kernel_nvm1ffPfS_iii' : regs=22, lmem=0, smem=0, cmem=388
GPGPU-Sim PTX: Kernel '_Z17naive_kernel_nvmuffPfS_iii' : regs=20, lmem=0, smem=0, cmem=388
GPGPU-Sim PTX: Kernel '_Z17naive_kernel_nvmoffPfS_iii' : regs=20, lmem=0, smem=0, cmem=388
GPGPU-Sim PTX: Kernel '_Z17naive_kernel_nvmbffPfS_iii' : regs=20, lmem=0, smem=0, cmem=388
GPGPU-Sim PTX: Kernel '_Z12naive_kernelffPfS_iii' : regs=20, lmem=0, smem=0, cmem=388
GPGPU-Sim PTX: __cudaRegisterFunction _Z17naive_kernel_nvm6ffPfS_iii : hostFun 0x0x40332e, fat_cubin_handle = 1
GPGPU-Sim PTX: __cudaRegisterFunction _Z17naive_kernel_nvmiffPfS_iii : hostFun 0x0x403135, fat_cubin_handle = 1
GPGPU-Sim PTX: __cudaRegisterFunction _Z17naive_kernel_nvm4ffPfS_iii : hostFun 0x0x402f3c, fat_cubin_handle = 1
GPGPU-Sim PTX: __cudaRegisterFunction _Z17naive_kernel_nvm3ffPfS_iii : hostFun 0x0x402d43, fat_cubin_handle = 1
GPGPU-Sim PTX: __cudaRegisterFunction _Z17naive_kernel_nvmgffPfS_iii : hostFun 0x0x402b4a, fat_cubin_handle = 1
GPGPU-Sim PTX: __cudaRegisterFunction _Z17naive_kernel_nvm2ffPfS_iii : hostFun 0x0x402951, fat_cubin_handle = 1
GPGPU-Sim PTX: __cudaRegisterFunction _Z17naive_kernel_nvm1ffPfS_iii : hostFun 0x0x402758, fat_cubin_handle = 1
GPGPU-Sim PTX: __cudaRegisterFunction _Z17naive_kernel_nvmuffPfS_iii : hostFun 0x0x40255f, fat_cubin_handle = 1
GPGPU-Sim PTX: __cudaRegisterFunction _Z17naive_kernel_nvmoffPfS_iii : hostFun 0x0x402366, fat_cubin_handle = 1
GPGPU-Sim PTX: __cudaRegisterFunction _Z17naive_kernel_nvmbffPfS_iii : hostFun 0x0x40216d, fat_cubin_handle = 1
GPGPU-Sim PTX: __cudaRegisterFunction _Z12naive_kernelffPfS_iii : hostFun 0x0x401f74, fat_cubin_handle = 1
GPGPU-Sim PTX: __cudaRegisterVar: hostVar = 0x6091c0; deviceAddress = NVM_log; deviceName = NVM_log
GPGPU-Sim PTX: __cudaRegisterVar: Registering const memory space of 67108864 bytes
GPGPU-Sim PTX registering global NVM_log hostVar to name mapping
GPGPU-Sim PTX: __cudaRegisterVar: hostVar = 0x46091c0; deviceAddress = NVM_flag; deviceName = NVM_flag
GPGPU-Sim PTX: __cudaRegisterVar: Registering const memory space of 4194304 bytes
GPGPU-Sim PTX registering global NVM_flag hostVar to name mapping
CUDA accelerated 7 points stencil codes****
Original version by Li-Wen Chang <lchang20@illinois.edu> and I-Jui Sung<sung10@illinois.edu>
This version maintained by Chris Rodrigues  ***********
GPGPU-Sim: synchronize waiting for inactive GPU simulation
GPGPU-Sim API: Stream Manager State
GPGPU-Sim: detected inactive GPU simulation thread
event update
GPGPU-Sim: synchronize waiting for inactive GPU simulation
GPGPU-Sim API: Stream Manager State
GPGPU-Sim: detected inactive GPU simulation thread
GPGPU-Sim PTX: Setting up arguments for 4 bytes starting at 0x7ffc3a20b5bc..
GPGPU-Sim PTX: Setting up arguments for 4 bytes starting at 0x7ffc3a20b5b8..
GPGPU-Sim PTX: Setting up arguments for 8 bytes starting at 0x7ffc3a20b5b0..
GPGPU-Sim PTX: Setting up arguments for 8 bytes starting at 0x7ffc3a20b5a8..
GPGPU-Sim PTX: Setting up arguments for 4 bytes starting at 0x7ffc3a20b5a4..
GPGPU-Sim PTX: Setting up arguments for 4 bytes starting at 0x7ffc3a20b5a0..
GPGPU-Sim PTX: Setting up arguments for 4 bytes starting at 0x7ffc3a20b59c..

GPGPU-Sim PTX: cudaLaunch for 0x0x402951 (mode=performance simulation) on stream 0
GPGPU-Sim PTX: finding reconvergence points for '_Z17naive_kernel_nvm2ffPfS_iii'...
GPGPU-Sim PTX: Finding dominators for '_Z17naive_kernel_nvm2ffPfS_iii'...
GPGPU-Sim PTX: Finding immediate dominators for '_Z17naive_kernel_nvm2ffPfS_iii'...
GPGPU-Sim PTX: Finding postdominators for '_Z17naive_kernel_nvm2ffPfS_iii'...
GPGPU-Sim PTX: Finding immediate postdominators for '_Z17naive_kernel_nvm2ffPfS_iii'...
GPGPU-Sim PTX: pre-decoding instructions for '_Z17naive_kernel_nvm2ffPfS_iii'...
GPGPU-Sim PTX: reconvergence points for _Z17naive_kernel_nvm2ffPfS_iii...
GPGPU-Sim PTX:  1 (potential) branch divergence @  PC=0x9b0 (stencil.1.sm_70.ptx:476) @%p1 bra BB5_4;
GPGPU-Sim PTX:    immediate post dominator      @  PC=0xbb8 (stencil.1.sm_70.ptx:555) ret;
GPGPU-Sim PTX:  2 (potential) branch divergence @  PC=0xb70 (stencil.1.sm_70.ptx:533) @%p2 bra BB5_3;
GPGPU-Sim PTX:    immediate post dominator      @  PC=0xb90 (stencil.1.sm_70.ptx:543) membar.gl;
GPGPU-Sim PTX: ... end of reconvergence points for _Z17naive_kernel_nvm2ffPfS_iii
GPGPU-Sim PTX: ... done pre-decoding instructions for '_Z17naive_kernel_nvm2ffPfS_iii'.
GPGPU-Sim PTX: pushing kernel '_Z17naive_kernel_nvm2ffPfS_iii' to stream 0, gridDim= (510,62,1) blockDim = (511,1,1) 
GPGPU-Sim uArch: Shader 0 bind to kernel 1 '_Z17naive_kernel_nvm2ffPfS_iii'
GPGPU-Sim uArch: CTA/core = 4, limited by: threads
GPGPU-Sim: Reconfigure L1 cache to 128KB
GPGPU-Sim uArch: Shader 1 bind to kernel 1 '_Z17naive_kernel_nvm2ffPfS_iii'
GPGPU-Sim uArch: Shader 2 bind to kernel 1 '_Z17naive_kernel_nvm2ffPfS_iii'
GPGPU-Sim uArch: Shader 3 bind to kernel 1 '_Z17naive_kernel_nvm2ffPfS_iii'
GPGPU-Sim uArch: Shader 4 bind to kernel 1 '_Z17naive_kernel_nvm2ffPfS_iii'
GPGPU-Sim uArch: Shader 5 bind to kernel 1 '_Z17naive_kernel_nvm2ffPfS_iii'
GPGPU-Sim uArch: Shader 6 bind to kernel 1 '_Z17naive_kernel_nvm2ffPfS_iii'
GPGPU-Sim uArch: Shader 7 bind to kernel 1 '_Z17naive_kernel_nvm2ffPfS_iii'
GPGPU-Sim uArch: Shader 8 bind to kernel 1 '_Z17naive_kernel_nvm2ffPfS_iii'
GPGPU-Sim uArch: Shader 9 bind to kernel 1 '_Z17naive_kernel_nvm2ffPfS_iii'
GPGPU-Sim uArch: Shader 10 bind to kernel 1 '_Z17naive_kernel_nvm2ffPfS_iii'
GPGPU-Sim uArch: Shader 11 bind to kernel 1 '_Z17naive_kernel_nvm2ffPfS_iii'
GPGPU-Sim uArch: Shader 12 bind to kernel 1 '_Z17naive_kernel_nvm2ffPfS_iii'
GPGPU-Sim uArch: Shader 13 bind to kernel 1 '_Z17naive_kernel_nvm2ffPfS_iii'
GPGPU-Sim uArch: Shader 14 bind to kernel 1 '_Z17naive_kernel_nvm2ffPfS_iii'
GPGPU-Sim uArch: Shader 15 bind to kernel 1 '_Z17naive_kernel_nvm2ffPfS_iii'
GPGPU-Sim uArch: Shader 16 bind to kernel 1 '_Z17naive_kernel_nvm2ffPfS_iii'
GPGPU-Sim uArch: Shader 17 bind to kernel 1 '_Z17naive_kernel_nvm2ffPfS_iii'
GPGPU-Sim uArch: Shader 18 bind to kernel 1 '_Z17naive_kernel_nvm2ffPfS_iii'
GPGPU-Sim uArch: Shader 19 bind to kernel 1 '_Z17naive_kernel_nvm2ffPfS_iii'
GPGPU-Sim uArch: Shader 20 bind to kernel 1 '_Z17naive_kernel_nvm2ffPfS_iii'
GPGPU-Sim uArch: Shader 21 bind to kernel 1 '_Z17naive_kernel_nvm2ffPfS_iii'
GPGPU-Sim uArch: Shader 22 bind to kernel 1 '_Z17naive_kernel_nvm2ffPfS_iii'
GPGPU-Sim uArch: Shader 23 bind to kernel 1 '_Z17naive_kernel_nvm2ffPfS_iii'
GPGPU-Sim uArch: Shader 24 bind to kernel 1 '_Z17naive_kernel_nvm2ffPfS_iii'
GPGPU-Sim uArch: Shader 25 bind to kernel 1 '_Z17naive_kernel_nvm2ffPfS_iii'
GPGPU-Sim uArch: Shader 26 bind to kernel 1 '_Z17naive_kernel_nvm2ffPfS_iii'
GPGPU-Sim uArch: Shader 27 bind to kernel 1 '_Z17naive_kernel_nvm2ffPfS_iii'
GPGPU-Sim uArch: Shader 28 bind to kernel 1 '_Z17naive_kernel_nvm2ffPfS_iii'
GPGPU-Sim uArch: Shader 29 bind to kernel 1 '_Z17naive_kernel_nvm2ffPfS_iii'
GPGPU-Sim uArch: Shader 30 bind to kernel 1 '_Z17naive_kernel_nvm2ffPfS_iii'
GPGPU-Sim uArch: Shader 31 bind to kernel 1 '_Z17naive_kernel_nvm2ffPfS_iii'
GPGPU-Sim uArch: Shader 32 bind to kernel 1 '_Z17naive_kernel_nvm2ffPfS_iii'
GPGPU-Sim uArch: Shader 33 bind to kernel 1 '_Z17naive_kernel_nvm2ffPfS_iii'
GPGPU-Sim uArch: Shader 34 bind to kernel 1 '_Z17naive_kernel_nvm2ffPfS_iii'
GPGPU-Sim uArch: Shader 35 bind to kernel 1 '_Z17naive_kernel_nvm2ffPfS_iii'
GPGPU-Sim uArch: Shader 36 bind to kernel 1 '_Z17naive_kernel_nvm2ffPfS_iii'
GPGPU-Sim uArch: Shader 37 bind to kernel 1 '_Z17naive_kernel_nvm2ffPfS_iii'
GPGPU-Sim uArch: Shader 38 bind to kernel 1 '_Z17naive_kernel_nvm2ffPfS_iii'
GPGPU-Sim uArch: Shader 39 bind to kernel 1 '_Z17naive_kernel_nvm2ffPfS_iii'
GPGPU-Sim uArch: Shader 40 bind to kernel 1 '_Z17naive_kernel_nvm2ffPfS_iii'
GPGPU-Sim uArch: Shader 41 bind to kernel 1 '_Z17naive_kernel_nvm2ffPfS_iii'
GPGPU-Sim uArch: Shader 42 bind to kernel 1 '_Z17naive_kernel_nvm2ffPfS_iii'
GPGPU-Sim uArch: Shader 43 bind to kernel 1 '_Z17naive_kernel_nvm2ffPfS_iii'
GPGPU-Sim uArch: Shader 44 bind to kernel 1 '_Z17naive_kernel_nvm2ffPfS_iii'
GPGPU-Sim uArch: Shader 45 bind to kernel 1 '_Z17naive_kernel_nvm2ffPfS_iii'
GPGPU-Sim uArch: Shader 46 bind to kernel 1 '_Z17naive_kernel_nvm2ffPfS_iii'
GPGPU-Sim uArch: Shader 47 bind to kernel 1 '_Z17naive_kernel_nvm2ffPfS_iii'
GPGPU-Sim uArch: Shader 48 bind to kernel 1 '_Z17naive_kernel_nvm2ffPfS_iii'
GPGPU-Sim uArch: Shader 49 bind to kernel 1 '_Z17naive_kernel_nvm2ffPfS_iii'
GPGPU-Sim uArch: Shader 50 bind to kernel 1 '_Z17naive_kernel_nvm2ffPfS_iii'
GPGPU-Sim uArch: Shader 51 bind to kernel 1 '_Z17naive_kernel_nvm2ffPfS_iii'
GPGPU-Sim uArch: Shader 52 bind to kernel 1 '_Z17naive_kernel_nvm2ffPfS_iii'
GPGPU-Sim uArch: Shader 53 bind to kernel 1 '_Z17naive_kernel_nvm2ffPfS_iii'
GPGPU-Sim uArch: Shader 54 bind to kernel 1 '_Z17naive_kernel_nvm2ffPfS_iii'
GPGPU-Sim uArch: Shader 55 bind to kernel 1 '_Z17naive_kernel_nvm2ffPfS_iii'
GPGPU-Sim uArch: Shader 56 bind to kernel 1 '_Z17naive_kernel_nvm2ffPfS_iii'
GPGPU-Sim uArch: Shader 57 bind to kernel 1 '_Z17naive_kernel_nvm2ffPfS_iii'
GPGPU-Sim uArch: Shader 58 bind to kernel 1 '_Z17naive_kernel_nvm2ffPfS_iii'
GPGPU-Sim uArch: Shader 59 bind to kernel 1 '_Z17naive_kernel_nvm2ffPfS_iii'
GPGPU-Sim uArch: Shader 60 bind to kernel 1 '_Z17naive_kernel_nvm2ffPfS_iii'
GPGPU-Sim uArch: Shader 61 bind to kernel 1 '_Z17naive_kernel_nvm2ffPfS_iii'
GPGPU-Sim uArch: Shader 62 bind to kernel 1 '_Z17naive_kernel_nvm2ffPfS_iii'
GPGPU-Sim uArch: Shader 63 bind to kernel 1 '_Z17naive_kernel_nvm2ffPfS_iii'
GPGPU-Sim uArch: Shader 64 bind to kernel 1 '_Z17naive_kernel_nvm2ffPfS_iii'
GPGPU-Sim uArch: Shader 65 bind to kernel 1 '_Z17naive_kernel_nvm2ffPfS_iii'
GPGPU-Sim uArch: Shader 66 bind to kernel 1 '_Z17naive_kernel_nvm2ffPfS_iii'
GPGPU-Sim uArch: Shader 67 bind to kernel 1 '_Z17naive_kernel_nvm2ffPfS_iii'
GPGPU-Sim uArch: Shader 68 bind to kernel 1 '_Z17naive_kernel_nvm2ffPfS_iii'
GPGPU-Sim uArch: Shader 69 bind to kernel 1 '_Z17naive_kernel_nvm2ffPfS_iii'
GPGPU-Sim uArch: Shader 70 bind to kernel 1 '_Z17naive_kernel_nvm2ffPfS_iii'
GPGPU-Sim uArch: Shader 71 bind to kernel 1 '_Z17naive_kernel_nvm2ffPfS_iii'
GPGPU-Sim uArch: Shader 72 bind to kernel 1 '_Z17naive_kernel_nvm2ffPfS_iii'
GPGPU-Sim uArch: Shader 73 bind to kernel 1 '_Z17naive_kernel_nvm2ffPfS_iii'
GPGPU-Sim uArch: Shader 74 bind to kernel 1 '_Z17naive_kernel_nvm2ffPfS_iii'
GPGPU-Sim uArch: Shader 75 bind to kernel 1 '_Z17naive_kernel_nvm2ffPfS_iii'
GPGPU-Sim uArch: Shader 76 bind to kernel 1 '_Z17naive_kernel_nvm2ffPfS_iii'
GPGPU-Sim uArch: Shader 77 bind to kernel 1 '_Z17naive_kernel_nvm2ffPfS_iii'
GPGPU-Sim uArch: Shader 78 bind to kernel 1 '_Z17naive_kernel_nvm2ffPfS_iii'
GPGPU-Sim uArch: Shader 79 bind to kernel 1 '_Z17naive_kernel_nvm2ffPfS_iii'
kernel_name = _Z17naive_kernel_nvm2ffPfS_iii 
kernel_launch_uid = 1 
gpu_sim_cycle = 182553
gpu_sim_insn = 80781852
gpu_ipc =     442.5118
gpu_tot_sim_cycle = 182553
gpu_tot_sim_insn = 80781852
gpu_tot_ipc =     442.5118
gpu_tot_issued_cta = 2369
gpu_occupancy = 91.4298% 
gpu_tot_occupancy = 91.4298% 
max_total_param_size = 0
gpu_stall_dramfull = 6896069
gpu_stall_icnt2sh    = 0
partiton_level_parallism =      17.1770
partiton_level_parallism_total  =      17.1770
partiton_level_parallism_util =      17.7530
partiton_level_parallism_util_total  =      17.7530
L2_BW  =     618.1398 GB/Sec
L2_BW_total  =     618.1398 GB/Sec
gpu_total_sim_rate=52387
############## bottleneck_stats #############
cycles: core 182553, icnt 182553, l2 182553, dram 137076
gpu_ipc	442.512
gpu_tot_issued_cta = 2369, average cycles = 77
n_dram_writes	 0, n_dram_reads	 0
n_GLOBAL_ACC_R	 213996 
n_LOCAL_ACC_R	 0 
n_CONST_ACC_R	 0 
n_TEXTURE_ACC_R	 0 
n_GLOBAL_ACC_W	 0 
n_LOCAL_ACC_W	 0 
n_L1_WRBK_ACC	 0 
n_L2_WRBK_ACC	 18382 
n_L1_WR_ALLOC_R	 0 
n_L2_WR_ALLOC_R	 0 

n_sm	 80, n_schedulers	 4
scheduler util	0.044	80
L1D data util	0.284	80	0.303	73
L1D tag util	0.114	80	0.129	48
L2 data util	0.130	64	0.134	42
L2 tag util	0.084	64	0.087	42
n_l2_access	 978856
icnt s2m util	0.000	0	0.000	42	flits per packet: -nan
icnt m2s util	0.000	0	0.000	42	flits per packet: -nan
sum=0
n_mem	 32
dram util	0.066	32	0.066	8

latency_l1_hit:	4073024, num_l1_reqs:	197423
L1 hit latency:	20
latency_l2_hit:	1121908877, num_l2_reqs:	621690
L2 hit latency:	1804
latency_dram:	912557002, num_dram_reqs:	356440
DRAM latency:	2560

n_reg	65536, n_smem	98304, n_thread	2048, n_tb	32
reg file	0.750
smem size	0.000
thread slot	1.000
TB slot    	0.125
L1I tag util	0.090	80	0.095	62

n_mem_pipe	1, n_sp_pipe	4, n_sfu_pipe	4
mem pipe util	0.042	80	0.045	62
sp pipe util	0.010	80	0.010	62
sfu pipe util	0.000	0	0.000	62
ldst mem cycle	0.149	80	0.159	62

smem port	0.000	0

n_reg_bank	16
reg port	0.025	16	0.027	12
L1D tag util	0.114	80	0.129	48
L1D fill util	0.057	80	0.061	73
n_l1d_mshr	4096
L1D mshr util	0.030	80
n_l1d_missq	16
L1D missq util	0.049	80
L1D hit rate	0.119
L1D miss rate	0.621
L1D rsfail rate	0.261
L2 tag util	0.084	64	0.087	42
L2 fill util	0.018	64	0.018	58
n_l2_mshr	192
n_l2_missq	32
L2 mshr util	0.072	64	0.074	23
L2 missq util	0.001	64	0.001	40
L2 hit rate	0.635
L2 miss rate	0.365
L2 rsfail rate	0.000

dram activity	0.156	32	0.164	8

load trans eff	0.935
load trans sz	32.000
load_useful_bytes 32646484, load_transaction_bytes 34930912, icnt_m2s_bytes 0
n_gmem_load_insns 256052, n_gmem_load_accesses 1091591
n_smem_access_insn 0, n_smem_accesses 0

tmp_counter/12	0.269

run 0.003, fetch 0.001, sync 0.423, control 0.000, data 0.551, struct 0.021
############ end_bottleneck_stats #############

========= Core cache stats =========
L1I_cache:
	L1I_total_cache_accesses = 0
	L1I_total_cache_misses = 0
	L1I_total_cache_pending_hits = 0
	L1I_total_cache_reservation_fails = 0
L1D_cache:
	L1D_cache_core[0]: Access = 15200, Miss = 12791, Miss_rate = 0.842, Pending_hits = 0, Reservation_fails = 6280
	L1D_cache_core[1]: Access = 15374, Miss = 12810, Miss_rate = 0.833, Pending_hits = 0, Reservation_fails = 5406
	L1D_cache_core[2]: Access = 15814, Miss = 13311, Miss_rate = 0.842, Pending_hits = 0, Reservation_fails = 6125
	L1D_cache_core[3]: Access = 15193, Miss = 12929, Miss_rate = 0.851, Pending_hits = 0, Reservation_fails = 5741
	L1D_cache_core[4]: Access = 15552, Miss = 13139, Miss_rate = 0.845, Pending_hits = 0, Reservation_fails = 4223
	L1D_cache_core[5]: Access = 15463, Miss = 12814, Miss_rate = 0.829, Pending_hits = 0, Reservation_fails = 4046
	L1D_cache_core[6]: Access = 15324, Miss = 12546, Miss_rate = 0.819, Pending_hits = 0, Reservation_fails = 4078
	L1D_cache_core[7]: Access = 15178, Miss = 12644, Miss_rate = 0.833, Pending_hits = 0, Reservation_fails = 5315
	L1D_cache_core[8]: Access = 16110, Miss = 13542, Miss_rate = 0.841, Pending_hits = 0, Reservation_fails = 5521
	L1D_cache_core[9]: Access = 15498, Miss = 13209, Miss_rate = 0.852, Pending_hits = 0, Reservation_fails = 6863
	L1D_cache_core[10]: Access = 15276, Miss = 13065, Miss_rate = 0.855, Pending_hits = 0, Reservation_fails = 7062
	L1D_cache_core[11]: Access = 14786, Miss = 12464, Miss_rate = 0.843, Pending_hits = 0, Reservation_fails = 6089
	L1D_cache_core[12]: Access = 14774, Miss = 12476, Miss_rate = 0.844, Pending_hits = 0, Reservation_fails = 5148
	L1D_cache_core[13]: Access = 15055, Miss = 12488, Miss_rate = 0.829, Pending_hits = 0, Reservation_fails = 6057
	L1D_cache_core[14]: Access = 15134, Miss = 12807, Miss_rate = 0.846, Pending_hits = 0, Reservation_fails = 6069
	L1D_cache_core[15]: Access = 15132, Miss = 12728, Miss_rate = 0.841, Pending_hits = 0, Reservation_fails = 7691
	L1D_cache_core[16]: Access = 15046, Miss = 12696, Miss_rate = 0.844, Pending_hits = 0, Reservation_fails = 5243
	L1D_cache_core[17]: Access = 15190, Miss = 12609, Miss_rate = 0.830, Pending_hits = 0, Reservation_fails = 5995
	L1D_cache_core[18]: Access = 14879, Miss = 12637, Miss_rate = 0.849, Pending_hits = 0, Reservation_fails = 4079
	L1D_cache_core[19]: Access = 15395, Miss = 12722, Miss_rate = 0.826, Pending_hits = 0, Reservation_fails = 5184
	L1D_cache_core[20]: Access = 15367, Miss = 12743, Miss_rate = 0.829, Pending_hits = 0, Reservation_fails = 6460
	L1D_cache_core[21]: Access = 15338, Miss = 12685, Miss_rate = 0.827, Pending_hits = 0, Reservation_fails = 4618
	L1D_cache_core[22]: Access = 15593, Miss = 12919, Miss_rate = 0.829, Pending_hits = 0, Reservation_fails = 4090
	L1D_cache_core[23]: Access = 15643, Miss = 12952, Miss_rate = 0.828, Pending_hits = 0, Reservation_fails = 4735
	L1D_cache_core[24]: Access = 15523, Miss = 13123, Miss_rate = 0.845, Pending_hits = 0, Reservation_fails = 4917
	L1D_cache_core[25]: Access = 15139, Miss = 12577, Miss_rate = 0.831, Pending_hits = 0, Reservation_fails = 4330
	L1D_cache_core[26]: Access = 15628, Miss = 13047, Miss_rate = 0.835, Pending_hits = 0, Reservation_fails = 4618
	L1D_cache_core[27]: Access = 15154, Miss = 12921, Miss_rate = 0.853, Pending_hits = 0, Reservation_fails = 4193
	L1D_cache_core[28]: Access = 15055, Miss = 12845, Miss_rate = 0.853, Pending_hits = 0, Reservation_fails = 4125
	L1D_cache_core[29]: Access = 15650, Miss = 13077, Miss_rate = 0.836, Pending_hits = 0, Reservation_fails = 5655
	L1D_cache_core[30]: Access = 15402, Miss = 12975, Miss_rate = 0.842, Pending_hits = 0, Reservation_fails = 5695
	L1D_cache_core[31]: Access = 14735, Miss = 12197, Miss_rate = 0.828, Pending_hits = 0, Reservation_fails = 5546
	L1D_cache_core[32]: Access = 15303, Miss = 12896, Miss_rate = 0.843, Pending_hits = 0, Reservation_fails = 5628
	L1D_cache_core[33]: Access = 14820, Miss = 12296, Miss_rate = 0.830, Pending_hits = 0, Reservation_fails = 5411
	L1D_cache_core[34]: Access = 15557, Miss = 12949, Miss_rate = 0.832, Pending_hits = 0, Reservation_fails = 4101
	L1D_cache_core[35]: Access = 14915, Miss = 12381, Miss_rate = 0.830, Pending_hits = 0, Reservation_fails = 4971
	L1D_cache_core[36]: Access = 15566, Miss = 13266, Miss_rate = 0.852, Pending_hits = 0, Reservation_fails = 4591
	L1D_cache_core[37]: Access = 15320, Miss = 12735, Miss_rate = 0.831, Pending_hits = 0, Reservation_fails = 5243
	L1D_cache_core[38]: Access = 15292, Miss = 12729, Miss_rate = 0.832, Pending_hits = 0, Reservation_fails = 4574
	L1D_cache_core[39]: Access = 15504, Miss = 12819, Miss_rate = 0.827, Pending_hits = 0, Reservation_fails = 4672
	L1D_cache_core[40]: Access = 14954, Miss = 12565, Miss_rate = 0.840, Pending_hits = 0, Reservation_fails = 7022
	L1D_cache_core[41]: Access = 15360, Miss = 13215, Miss_rate = 0.860, Pending_hits = 0, Reservation_fails = 4565
	L1D_cache_core[42]: Access = 15354, Miss = 12857, Miss_rate = 0.837, Pending_hits = 0, Reservation_fails = 5151
	L1D_cache_core[43]: Access = 15473, Miss = 13071, Miss_rate = 0.845, Pending_hits = 0, Reservation_fails = 4794
	L1D_cache_core[44]: Access = 15758, Miss = 13328, Miss_rate = 0.846, Pending_hits = 0, Reservation_fails = 6029
	L1D_cache_core[45]: Access = 15347, Miss = 12990, Miss_rate = 0.846, Pending_hits = 0, Reservation_fails = 7397
	L1D_cache_core[46]: Access = 15434, Miss = 12670, Miss_rate = 0.821, Pending_hits = 0, Reservation_fails = 4241
	L1D_cache_core[47]: Access = 14561, Miss = 12147, Miss_rate = 0.834, Pending_hits = 0, Reservation_fails = 5360
	L1D_cache_core[48]: Access = 16163, Miss = 13566, Miss_rate = 0.839, Pending_hits = 0, Reservation_fails = 7353
	L1D_cache_core[49]: Access = 15205, Miss = 12960, Miss_rate = 0.852, Pending_hits = 0, Reservation_fails = 6511
	L1D_cache_core[50]: Access = 15221, Miss = 13021, Miss_rate = 0.855, Pending_hits = 0, Reservation_fails = 5616
	L1D_cache_core[51]: Access = 14996, Miss = 12575, Miss_rate = 0.839, Pending_hits = 0, Reservation_fails = 4212
	L1D_cache_core[52]: Access = 15216, Miss = 12673, Miss_rate = 0.833, Pending_hits = 0, Reservation_fails = 6060
	L1D_cache_core[53]: Access = 15028, Miss = 12663, Miss_rate = 0.843, Pending_hits = 0, Reservation_fails = 6610
	L1D_cache_core[54]: Access = 15388, Miss = 12927, Miss_rate = 0.840, Pending_hits = 0, Reservation_fails = 5534
	L1D_cache_core[55]: Access = 14684, Miss = 12419, Miss_rate = 0.846, Pending_hits = 0, Reservation_fails = 6152
	L1D_cache_core[56]: Access = 15619, Miss = 13028, Miss_rate = 0.834, Pending_hits = 0, Reservation_fails = 6038
	L1D_cache_core[57]: Access = 16007, Miss = 13465, Miss_rate = 0.841, Pending_hits = 0, Reservation_fails = 4866
	L1D_cache_core[58]: Access = 15381, Miss = 12997, Miss_rate = 0.845, Pending_hits = 0, Reservation_fails = 7703
	L1D_cache_core[59]: Access = 15816, Miss = 13258, Miss_rate = 0.838, Pending_hits = 0, Reservation_fails = 5268
	L1D_cache_core[60]: Access = 15621, Miss = 13057, Miss_rate = 0.836, Pending_hits = 0, Reservation_fails = 4951
	L1D_cache_core[61]: Access = 15934, Miss = 13405, Miss_rate = 0.841, Pending_hits = 0, Reservation_fails = 5819
	L1D_cache_core[62]: Access = 16336, Miss = 13732, Miss_rate = 0.841, Pending_hits = 0, Reservation_fails = 6496
	L1D_cache_core[63]: Access = 15552, Miss = 13055, Miss_rate = 0.839, Pending_hits = 0, Reservation_fails = 4094
	L1D_cache_core[64]: Access = 15248, Miss = 12770, Miss_rate = 0.837, Pending_hits = 0, Reservation_fails = 3877
	L1D_cache_core[65]: Access = 15237, Miss = 12939, Miss_rate = 0.849, Pending_hits = 0, Reservation_fails = 6903
	L1D_cache_core[66]: Access = 15046, Miss = 12650, Miss_rate = 0.841, Pending_hits = 0, Reservation_fails = 4781
	L1D_cache_core[67]: Access = 16024, Miss = 13591, Miss_rate = 0.848, Pending_hits = 0, Reservation_fails = 4377
	L1D_cache_core[68]: Access = 15779, Miss = 13191, Miss_rate = 0.836, Pending_hits = 0, Reservation_fails = 6066
	L1D_cache_core[69]: Access = 15612, Miss = 13086, Miss_rate = 0.838, Pending_hits = 0, Reservation_fails = 5387
	L1D_cache_core[70]: Access = 15168, Miss = 12635, Miss_rate = 0.833, Pending_hits = 0, Reservation_fails = 4423
	L1D_cache_core[71]: Access = 15874, Miss = 13219, Miss_rate = 0.833, Pending_hits = 0, Reservation_fails = 3940
	L1D_cache_core[72]: Access = 15345, Miss = 13085, Miss_rate = 0.853, Pending_hits = 0, Reservation_fails = 7105
	L1D_cache_core[73]: Access = 16212, Miss = 13828, Miss_rate = 0.853, Pending_hits = 0, Reservation_fails = 5700
	L1D_cache_core[74]: Access = 15406, Miss = 13274, Miss_rate = 0.862, Pending_hits = 0, Reservation_fails = 5037
	L1D_cache_core[75]: Access = 15434, Miss = 12879, Miss_rate = 0.834, Pending_hits = 0, Reservation_fails = 4863
	L1D_cache_core[76]: Access = 15578, Miss = 13244, Miss_rate = 0.850, Pending_hits = 0, Reservation_fails = 4622
	L1D_cache_core[77]: Access = 15981, Miss = 13345, Miss_rate = 0.835, Pending_hits = 0, Reservation_fails = 6805
	L1D_cache_core[78]: Access = 15685, Miss = 13188, Miss_rate = 0.841, Pending_hits = 0, Reservation_fails = 6205
	L1D_cache_core[79]: Access = 15538, Miss = 12902, Miss_rate = 0.830, Pending_hits = 0, Reservation_fails = 5957
	L1D_total_cache_accesses = 1231452
	L1D_total_cache_misses = 1034029
	L1D_total_cache_miss_rate = 0.8397
	L1D_total_cache_pending_hits = 0
	L1D_total_cache_reservation_fails = 434278
	L1D_cache_data_port_util = 0.014
	L1D_cache_fill_port_util = 0.059
L1C_cache:
	L1C_total_cache_accesses = 0
	L1C_total_cache_misses = 0
	L1C_total_cache_pending_hits = 0
	L1C_total_cache_reservation_fails = 0
L1T_cache:
	L1T_total_cache_accesses = 0
	L1T_total_cache_misses = 0
	L1T_total_cache_pending_hits = 0
	L1T_total_cache_reservation_fails = 0

Total_core_cache_stats:
	Total_core_cache_stats_breakdown[GLOBAL_ACC_R][HIT] = 197423
	Total_core_cache_stats_breakdown[GLOBAL_ACC_R][HIT_RESERVED] = 0
	Total_core_cache_stats_breakdown[GLOBAL_ACC_R][MISS] = 771544
	Total_core_cache_stats_breakdown[GLOBAL_ACC_R][RESERVATION_FAIL] = 412271
	Total_core_cache_stats_breakdown[GLOBAL_ACC_R][SECTOR_MISS] = 121745
	Total_core_cache_stats_breakdown[LOCAL_ACC_R][HIT] = 0
	Total_core_cache_stats_breakdown[LOCAL_ACC_R][HIT_RESERVED] = 0
	Total_core_cache_stats_breakdown[LOCAL_ACC_R][MISS] = 0
	Total_core_cache_stats_breakdown[LOCAL_ACC_R][RESERVATION_FAIL] = 0
	Total_core_cache_stats_breakdown[LOCAL_ACC_R][SECTOR_MISS] = 0
	Total_core_cache_stats_breakdown[CONST_ACC_R][HIT] = 0
	Total_core_cache_stats_breakdown[CONST_ACC_R][HIT_RESERVED] = 0
	Total_core_cache_stats_breakdown[CONST_ACC_R][MISS] = 0
	Total_core_cache_stats_breakdown[CONST_ACC_R][RESERVATION_FAIL] = 0
	Total_core_cache_stats_breakdown[CONST_ACC_R][SECTOR_MISS] = 0
	Total_core_cache_stats_breakdown[TEXTURE_ACC_R][HIT] = 0
	Total_core_cache_stats_breakdown[TEXTURE_ACC_R][HIT_RESERVED] = 0
	Total_core_cache_stats_breakdown[TEXTURE_ACC_R][MISS] = 0
	Total_core_cache_stats_breakdown[TEXTURE_ACC_R][RESERVATION_FAIL] = 0
	Total_core_cache_stats_breakdown[TEXTURE_ACC_R][SECTOR_MISS] = 0
	Total_core_cache_stats_breakdown[GLOBAL_ACC_W][HIT] = 0
	Total_core_cache_stats_breakdown[GLOBAL_ACC_W][HIT_RESERVED] = 0
	Total_core_cache_stats_breakdown[GLOBAL_ACC_W][MISS] = 140740
	Total_core_cache_stats_breakdown[GLOBAL_ACC_W][RESERVATION_FAIL] = 22007
	Total_core_cache_stats_breakdown[GLOBAL_ACC_W][SECTOR_MISS] = 0
	Total_core_cache_stats_breakdown[LOCAL_ACC_W][HIT] = 0
	Total_core_cache_stats_breakdown[LOCAL_ACC_W][HIT_RESERVED] = 0
	Total_core_cache_stats_breakdown[LOCAL_ACC_W][MISS] = 0
	Total_core_cache_stats_breakdown[LOCAL_ACC_W][RESERVATION_FAIL] = 0
	Total_core_cache_stats_breakdown[LOCAL_ACC_W][SECTOR_MISS] = 0
	Total_core_cache_stats_breakdown[L1_WRBK_ACC][HIT] = 0
	Total_core_cache_stats_breakdown[L1_WRBK_ACC][HIT_RESERVED] = 0
	Total_core_cache_stats_breakdown[L1_WRBK_ACC][MISS] = 0
	Total_core_cache_stats_breakdown[L1_WRBK_ACC][RESERVATION_FAIL] = 0
	Total_core_cache_stats_breakdown[L1_WRBK_ACC][SECTOR_MISS] = 0
	Total_core_cache_stats_breakdown[L2_WRBK_ACC][HIT] = 0
	Total_core_cache_stats_breakdown[L2_WRBK_ACC][HIT_RESERVED] = 0
	Total_core_cache_stats_breakdown[L2_WRBK_ACC][MISS] = 0
	Total_core_cache_stats_breakdown[L2_WRBK_ACC][RESERVATION_FAIL] = 0
	Total_core_cache_stats_breakdown[L2_WRBK_ACC][SECTOR_MISS] = 0
	Total_core_cache_stats_breakdown[INST_ACC_R][HIT] = 0
	Total_core_cache_stats_breakdown[INST_ACC_R][HIT_RESERVED] = 0
	Total_core_cache_stats_breakdown[INST_ACC_R][MISS] = 0
	Total_core_cache_stats_breakdown[INST_ACC_R][RESERVATION_FAIL] = 0
	Total_core_cache_stats_breakdown[INST_ACC_R][SECTOR_MISS] = 0
	Total_core_cache_stats_breakdown[L1_WR_ALLOC_R][HIT] = 0
	Total_core_cache_stats_breakdown[L1_WR_ALLOC_R][HIT_RESERVED] = 0
	Total_core_cache_stats_breakdown[L1_WR_ALLOC_R][MISS] = 0
	Total_core_cache_stats_breakdown[L1_WR_ALLOC_R][RESERVATION_FAIL] = 0
	Total_core_cache_stats_breakdown[L1_WR_ALLOC_R][SECTOR_MISS] = 0
	Total_core_cache_stats_breakdown[L2_WR_ALLOC_R][HIT] = 0
	Total_core_cache_stats_breakdown[L2_WR_ALLOC_R][HIT_RESERVED] = 0
	Total_core_cache_stats_breakdown[L2_WR_ALLOC_R][MISS] = 0
	Total_core_cache_stats_breakdown[L2_WR_ALLOC_R][RESERVATION_FAIL] = 0
	Total_core_cache_stats_breakdown[L2_WR_ALLOC_R][SECTOR_MISS] = 0
	Total_core_cache_stats_breakdown[GLOBAL_ACC_R][TOTAL_ACCESS] = 1090712
	Total_core_cache_stats_breakdown[GLOBAL_ACC_W][TOTAL_ACCESS] = 140740

Total_core_cache_fail_stats:
	Total_core_cache_fail_stats_breakdown[GLOBAL_ACC_R][MISS_QUEUE_FULL] = 412271
	Total_core_cache_fail_stats_breakdown[GLOBAL_ACC_W][MISS_QUEUE_FULL] = 22007
Shader 0 warp_id issue ditsribution:
warp_id:
0, 1, 2, 3, 4, 5, 6, 7, 8, 9, 10, 11, 12, 13, 14, 15, 16, 17, 18, 19, 20, 21, 22, 23, 24, 25, 26, 27, 28, 29, 30, 31, 32, 33, 34, 35, 36, 37, 38, 39, 40, 41, 42, 43, 44, 45, 46, 47, 48, 49, 50, 51, 52, 53, 54, 55, 56, 57, 58, 59, 60, 61, 62, 63, 
distro:
535, 535, 530, 530, 530, 530, 530, 530, 530, 530, 535, 535, 530, 530, 530, 530, 497, 497, 496, 496, 496, 496, 497, 497, 496, 496, 497, 497, 497, 497, 497, 497, 481, 481, 475, 475, 481, 481, 475, 481, 481, 481, 481, 481, 481, 475, 475, 481, 472, 472, 481, 470, 464, 464, 472, 470, 464, 464, 472, 479, 470, 470, 481, 481, 
gpgpu_n_tot_thrd_icount = 82282368
gpgpu_n_tot_w_icount = 2571324
gpgpu_n_stall_shd_mem = 6474252
gpgpu_n_mem_read_local = 0
gpgpu_n_mem_write_local = 0
gpgpu_n_mem_read_global = 847801
gpgpu_n_mem_write_global = 2323325
gpgpu_n_mem_texture = 0
gpgpu_n_mem_const = 0
gpgpu_n_load_insn  = 8157229
gpgpu_n_store_insn = 2209198
gpgpu_n_shmem_insn = 0
gpgpu_n_sstarr_insn = 0
gpgpu_n_tex_insn = 0
gpgpu_n_const_mem_insn = 0
gpgpu_n_param_mem_insn = 7239478
gpgpu_n_shmem_bkconflict = 0
gpgpu_n_cache_bkconflict = 0
gpgpu_n_intrawarp_mshr_merge = 0
gpgpu_n_cmem_portconflict = 0
gpgpu_stall_shd_mem[c_mem][resource_stall] = 0
gpgpu_stall_shd_mem[s_mem][bk_conf] = 0
gpgpu_stall_shd_mem[gl_mem][resource_stall] = 1224548
gpgpu_stall_shd_mem[gl_mem][coal_stall] = 2148493
gpgpu_stall_shd_mem[gl_mem][data_port_stall] = 0
gpu_reg_bank_conflict_stalls = 0
Warp Occupancy Distribution:
Stall:16343462	W0_Idle:40511	W0_Scoreboard:37858125	W1:0	W2:0	W3:0	W4:0	W5:0	W6:0	W7:0	W8:0	W9:0	W10:0	W11:0	W12:0	W13:0	W14:0	W15:0	W16:0	W17:0	W18:0	W19:0	W20:0	W21:0	W22:0	W23:0	W24:0	W25:0	W26:0	W27:0	W28:0	W29:0	W30:0	W31:298748	W32:2275794
single_issue_nums: WS0:643676	WS1:643612	WS2:643453	WS3:643801	
dual_issue_nums: WS0:0	WS1:0	WS2:0	WS3:0	
traffic_breakdown_coretomem[GLOBAL_ACC_R] = 6782408 {8:847801,}
traffic_breakdown_coretomem[GLOBAL_ACC_W] = 23090280 {8:2182585,40:140740,}
traffic_breakdown_memtocore[GLOBAL_ACC_R] = 33537720 {40:838443,}
traffic_breakdown_memtocore[GLOBAL_ACC_W] = 18213120 {8:2276640,}
maxmflatency = 9683 
max_icnt2mem_latency = 8424 
maxmrqlatency = 197 
max_icnt2sh_latency = 104 
averagemflatency = 3095 
avg_icnt2mem_latency = 1984 
avg_mrq_latency = 16 
avg_icnt2sh_latency = 2 
mrq_lat_table:87537 	40998 	11624 	13141 	26593 	37405 	13714 	1359 	0 	0 	0 	0 	0 	0 	0 	0 	0 	0 	0 	0 	0 	0 	0 	0 	0 	0 	0 	0 	0 	0 	0 	0 	
dq_lat_table:0 	0 	0 	0 	0 	0 	0 	0 	0 	0 	0 	0 	0 	0 	0 	0 	0 	0 	0 	0 	0 	0 	0 	0 	0 	0 	0 	0 	0 	0 	0 	0 	
mf_lat_table:0 	0 	0 	0 	0 	0 	0 	30840 	88042 	139463 	472037 	1664426 	719612 	651 	0 	0 	0 	0 	0 	0 	0 	0 	0 	0 	0 	0 	0 	0 	0 	0 	0 	0 	
icnt2mem_lat_table:0 	3803 	1824 	2410 	55294 	27329 	41043 	90066 	168820 	323524 	999986 	1283839 	137766 	1 	0 	0 	0 	0 	0 	0 	0 	0 	0 	0 	
icnt2sh_lat_table:0 	2725776 	288973 	68800 	22568 	7909 	1045 	0 	0 	0 	0 	0 	0 	0 	0 	0 	0 	0 	0 	0 	0 	0 	0 	0 	
mf_lat_pw_table:0 	0 	0 	0 	0 	0 	0 	0 	3 	3 	12 	295 	41 	0 	0 	0 	0 	0 	0 	0 	0 	0 	0 	0 	0 	0 	0 	0 	0 	0 	0 	0 	
maximum concurrent accesses to same row:
dram[0]:        64        64        64        64        64        64        64        64        64        64        64        64        64        64        64        64 
dram[1]:        64        64        64        64        64        64        64        64        64        64        64        64        64        64        64        64 
dram[2]:        64        64        64        64        64        64        64        64        64        64        64        64        64        64        64        64 
dram[3]:        64        64        64        64        64        64        64        64        64        64        64        64        64        64        64        64 
dram[4]:        64        64        64        64        64        64        64        64        64        64        64        64        64        64        64        64 
dram[5]:        64        64        64        64        64        64        64        64        64        64        64        64        64        64        64        64 
dram[6]:        64        64        64        64        64        64        64        64        64        64        64        64        64        64        64        64 
dram[7]:        64        64        64        64        64        64        64        64        64        64        64        64        64        64        64        64 
dram[8]:        64        64        64        64        64        64        64        64        64        64        64        64        64        64        64        64 
dram[9]:        64        64        64        64        64        64        64        64        64        64        64        64        64        64        64        64 
dram[10]:        64        64        64        64        64        64        64        64        64        64        64        64        64        64        64        64 
dram[11]:        64        64        64        64        64        64        64        64        64        64        64        64        64        64        64        64 
dram[12]:        64        64        64        64        64        64        64        64        64        64        64        64        64        64        64        64 
dram[13]:        64        64        64        64        64        64        64        64        64        64        64        64        64        64        64        64 
dram[14]:        64        64        64        64        64        64        64        64        64        64        64        64        64        64        64        64 
dram[15]:        64        64        64        64        64        64        64        64        64        64        64        64        64        64        64        64 
dram[16]:        64        64        64        64        64        64        64        64        64        64        64        64        64        64        64        64 
dram[17]:        64        64        64        64        64        64        64        64        64        64        64        64        64        64        64        64 
dram[18]:        64        64        64        64        64        64        64        64        64        64        64        64        64        64        64        64 
dram[19]:        64        64        64        64        64        64        64        64        64        64        64        64        64        64        64        64 
dram[20]:        64        64        64        64        64        64        64        64        64        64        64        64        64        64        64        64 
dram[21]:        64        64        64        64        64        64        64        64        64        64        64        64        64        64        64        64 
dram[22]:        64        64        64        64        64        64        64        64        64        64        64        64        64        64        64        64 
dram[23]:        64        64        64        64        64        64        64        64        64        64        64        64        64        64        64        64 
dram[24]:        64        64        64        64        64        64        64        64        64        64        64        64        64        64        64        56 
dram[25]:        64        64        64        64        64        64        64        64        64        64        64        64        64        64        64        56 
dram[26]:        64        64        64        64        64        64        64        64        64        64        64        64        64        64        64        56 
dram[27]:        64        64        64        64        64        64        64        64        64        64        64        64        64        64        64        56 
dram[28]:        64        64        64        64        64        64        64        64        64        64        64        64        64        64        64        56 
dram[29]:        64        64        64        64        64        64        64        64        64        64        64        64        64        64        64        56 
dram[30]:        64        64        64        64        64        64        64        64        64        64        64        64        64        64        64        56 
dram[31]:        64        64        64        64        64        64        64        64        64        64        64        64        64        64        64        56 
maximum service time to same row:
dram[0]:     38499     40290     41693     42836     41478     41329     41096     39272     45460     45970     35619     38847     41468     42394     41173     40240 
dram[1]:     39319     39666     41954     42263     42039     40774     41234     40086     45256     46221     34922     39836     40716     42762     40471     40893 
dram[2]:     38026     41234     41384     42787     41713     41134     41644     41234     45071     46305     35976     38623     42390     41137     42295     39029 
dram[3]:     38937     39827     41884     42455     41781     41198     41307     40942     45601     45649     35192     39799     40729     42768     40759     40635 
dram[4]:     37493     41067     40812     43520     40034     43020     40269     41541     44824     46481     35216     39382     41347     42325     40805     40743 
dram[5]:     38720     40174     41517     42750     41493     41448     40936     41874     45261     45837     34759     40095     40866     42707     41013     40689 
dram[6]:     38889     39520     42192     42270     41045     41618     40591     41750     45687     45305     34213     40200     40735     42615     40081     41555 
dram[7]:     38158     40555     41242     43506     40360     42425     40132     43000     45118     46261     34524     39740     40785     42658     40786     40714 
dram[8]:     41531     39919     43674     42284     39642     40659     42110     40755     46420     45445     39318     40554     41331     42702     41222     44747 
dram[9]:     41362     40234     44225     42036     40849     39942     42032     40425     46057     45761     40459     39470     42684     41204     42932     43064 
dram[10]:     41012     40596     43115     43077     39728     40912     42077     40666     46098     45661     40327     39665     42775     41111     42932     42971 
dram[11]:     40327     41222     42985     43552     38957     41636     42030     41684     46331     45587     39180     40757     41641     42317     42004     43561 
dram[12]:     39919     41892     42965     43561     39027     41651     42004     41771     46023     45482     38838     41022     41140     42763     41879     44000 
dram[13]:     40159     41493     42802     43580     38736     41863     42407     42096     46136     45475     38569     40966     41089     42609     42018     43571 
dram[14]:     40652     41054     43255     42977     39809     41150     42050     40843     45654     45771     39965     39771     42271     41311     42444     43331 
dram[15]:     40121     41490     42653     43661     39411     41610     42660     41606     46013     45586     38818     41098     41060     42463     41526     44221 
dram[16]:     37291     41422     40897     43156     40454     43968     41479     41774     45214     47445     38925     40514     40733     41125     44171     42903 
dram[17]:     38220     40290     42040     42806     41474     42766     42880     40440     47057     45492     38637     41241     40315     41749     43166     43777 
dram[18]:     38260     40896     41510     43211     41011     43287     42707     40716     46538     45751     39253     40714     41069     40828     44480     42456 
dram[19]:     38557     40729     41778     42999     40699     43837     43035     41253     47403     45193     38331     41326     40438     41628     44241     42624 
dram[20]:     37686     41014     40642     43749     40042     44321     43211     41096     46547     45859     39038     41049     40535     41164     43668     42995 
dram[21]:     37691     41174     40741     43522     39990     45167     42006     41607     45033     46990     39389     40788     40791     41192     44017     42563 
dram[22]:     38839     40030     42013     42256     41645     42944     43485     40158     46924     45643     39320     40649     40383     41494     43406     43094 
dram[23]:     38656     39858     41875     42511     41211     43334     43615     40451     47187     45428     38857     41454     40442     41229     43868     42630 
dram[24]:     38563     43012     41746     43817     39497     42590     42436     41339     47177     46605     40078     38239     44444     40166     43270     33648 
dram[25]:     39084     42718     41245     44492     38995     43079     43025     41804     48391     45604     38570     40057     42748     41801     42238     33807 
dram[26]:     40500     41359     43220     42919     40846     41197     43296     40415     48366     45402     39367     39171     43071     41632     41944     33148 
dram[27]:     39224     42112     42546     43415     40301     41921     42837     41031     47771     46008     40667     37880     44069     40367     43088     33673 
dram[28]:     39744     42113     42137     43975     39226     43020     42400     41478     47418     46582     39225     39365     42959     41888     42044     33369 
dram[29]:     41065     40601     44132     42194     41242     40716     42712     41044     48273     45986     39552     39099     43118     41541     41892     33625 
dram[30]:     39738     41851     42712     43879     39699     42181     42613     41016     47994     46201     39848     38860     43365     41404     41700     33737 
dram[31]:     41053     40661     44082     42329     41154     40753     42487     41229     48206     46026     39566     39220     42807     42008     41233     33847 
average row accesses per activate:
dram[0]: 27.470589 35.428570 24.799999 15.030303 32.000000 26.777779 25.263159 17.103449 40.727272 40.000000 12.606061 10.400000 12.606061 15.407408 15.407408 11.555555 
dram[1]: 27.411764 41.333332 27.500000 24.799999 32.000000 26.777779 28.294117 25.684210 49.777779 49.777779 13.419354  9.904762 13.866667 14.857142 14.857142 14.857142 
dram[2]: 27.764706 34.714287 24.799999 20.666666 32.000000 28.235294 18.576923 26.888889 41.454544 39.272728 10.666667 12.235294 14.344828 14.857142 16.000000 13.833333 
dram[3]: 25.944445 41.333332 24.700001 20.666666 34.357143 36.923077 22.904762 25.631578 40.727272 40.727272 10.146341 12.235294 14.857142 13.419354 14.344828 13.000000 
dram[4]: 27.823530 48.700001 23.619047 35.357143 32.066666 34.285713 22.272728 22.000000 50.666668 48.000000 13.000000 12.235294 16.000000 13.419354 13.866667 13.354838 
dram[5]: 24.842106 35.214287 20.625000 19.076923 32.000000 32.000000 22.952381 20.956522 40.727272 39.272728 10.666667 14.857142 17.333334 13.419354 13.866667 11.555555 
dram[6]: 27.647058 41.333332 27.555555 22.545454 32.000000 32.000000 26.722221 24.150000 49.777779 48.000000 13.000000  9.454545 16.639999 15.407408 15.407408 11.885715 
dram[7]: 26.111111 41.333332 24.799999 21.521740 32.000000 32.000000 22.000000 23.142857 40.727272 34.461540 10.146341 14.857142 14.344828 16.639999 16.000000 16.000000 
dram[8]: 31.000000 35.428570 24.799999 24.799999 32.000000 32.000000 16.896551 25.263159 34.461540 38.545456 13.000000 10.400000 16.639999 13.419354 14.344828 13.866667 
dram[9]: 35.428570 31.000000 27.555555 22.545454 32.000000 32.000000 26.722221 26.888889 48.888889 47.555557 14.379311  9.244445 16.639999 13.000000 16.000000 16.000000 
dram[10]: 35.357143 35.357143 31.000000 21.565218 32.000000 32.000000 22.045454 21.954546 40.000000 33.846153 13.419354 13.419354 18.086956 14.344828 16.639999 13.000000 
dram[11]: 41.250000 35.428570 31.000000 27.555555 36.923077 36.923077 17.250000 26.833334 40.000000 40.000000 14.857142  9.454545 16.639999 13.419354 16.000000 13.419354 
dram[12]: 41.333332 40.833332 35.428570 35.357143 34.285713 34.285713 16.366667 32.000000 48.888889 47.111111 13.866667 14.344828 16.000000 14.344828 17.333334 14.310345 
dram[13]: 35.428570 35.214287 27.555555 24.750000 32.000000 32.000000 15.838710 28.235294 33.846153 39.636364 13.000000 11.885715 14.857142 14.344828 14.857142 15.370370 
dram[14]: 35.428570 30.937500 27.555555 24.799999 32.000000 32.000000 18.000000 25.263159 48.888889 48.666668 13.419354 12.235294 16.000000 15.407408 17.333334 15.407408 
dram[15]: 41.333332 35.000000 24.799999 22.545454 32.000000 28.294117 16.366667 28.235294 40.000000 38.545456 14.857142 11.885715 16.639999 13.866667 17.333334 12.606061 
dram[16]: 35.285713 35.214287 17.714285 22.545454 32.000000 30.062500 22.809525 22.523809 39.272728 40.000000  9.454545 11.885715 15.407408 13.419354 13.419354 13.419354 
dram[17]: 35.000000 35.285713 20.666666 22.545454 30.062500 32.000000 36.307693 16.448277 47.111111 48.888889 12.235294 11.555555 14.857142 13.866667 10.048780 12.235294 
dram[18]: 40.750000 35.285713 27.500000 20.666666 32.000000 30.062500 31.466667 14.088235 38.909092 40.000000 11.555555  9.904762 12.235294 13.000000 12.606061 12.235294 
dram[19]: 41.000000 35.142857 24.799999 22.545454 36.923077 36.923077 32.000000 18.760000 39.272728 40.000000 11.885715  9.043478 12.235294 14.857142 14.344828 12.235294 
dram[20]: 40.750000 49.000000 22.545454 31.000000 30.062500 34.285713 27.823530 25.000000 47.111111 48.888889 10.666667 11.885715 14.857142 13.419354 16.000000 13.000000 
dram[21]: 35.285713 40.416668 22.545454 22.545454 30.125000 32.000000 22.181818 19.416666 33.230770 40.000000 10.947369 10.947369 13.866667 16.000000 14.344828 12.575758 
dram[22]: 41.083332 40.833332 22.545454 22.545454 32.000000 32.000000 32.066666 17.259260 48.000000 48.888889 11.555555 12.235294 14.344828 14.857142 13.419354 14.344828 
dram[23]: 40.750000 41.166668 19.076923 24.799999 30.062500 32.000000 24.894737 16.964285 32.615383 40.000000 11.555555 11.885715 14.857142 17.333334 11.857142 13.866667 
dram[24]: 35.428570 40.833332 16.533333 24.650000 26.888889 32.000000 17.034483 25.263159 34.461540 39.272728 11.243243 14.857142 14.344828 11.885715 11.885715 11.647058 
dram[25]: 35.285713 41.333332 23.619047 27.444445 32.000000 32.000000 32.000000 25.368422 39.272728 48.444443 13.419354 11.243243 12.606061 12.606061 13.000000 15.840000 
dram[26]: 40.833332 41.333332 27.555555 16.500000 26.777779 30.062500 28.235294 14.818182 38.545456 40.000000 11.555555 11.243243 13.866667 13.866667 14.714286 12.774194 
dram[27]: 40.750000 41.333332 27.555555 17.642857 34.357143 36.923077 22.714285 16.758621 38.545456 40.000000 11.243243 11.885715 13.000000 12.235294 13.866667 11.314285 
dram[28]: 40.333332 49.599998 26.052631 30.937500 34.285713 34.285713 32.000000 20.125000 47.111111 48.888889 13.419354 14.344828 13.419354 14.344828 13.000000 13.200000 
dram[29]: 41.250000 40.833332 27.555555 24.700001 26.777779 32.000000 24.400000 20.695652 41.454544 38.909092 11.243243 12.606061 14.857142 11.555555 12.235294 12.774194 
dram[30]: 41.333332 40.750000 20.666666 27.444445 30.125000 32.000000 24.200001 21.909090 48.888889 48.000000 11.243243 12.606061 11.885715 13.866667 14.344828 11.314285 
dram[31]: 41.333332 41.250000 24.799999 22.500000 25.368422 32.000000 24.200001 16.620689 40.000000 39.272728 11.243243 12.235294 12.235294 13.000000 13.000000 11.000000 
average row locality = 232371/11302 = 20.560165
number of total memory accesses made:
dram[0]:         0         0         0         0         0         0         0         0         0         0         0         0         0         0         0         0 
dram[1]:         0         0         0         0         0         0         0         0         0         0         0         0         0         0         0         0 
dram[2]:         0         0         0         0         0         0         0         0         0         0         0         0         0         0         0         0 
dram[3]:         0         0         0         0         0         0         0         0         0         0         0         0         0         0         0         0 
dram[4]:         0         0         0         0         0         0         0         0         0         0         0         0         0         0         0         0 
dram[5]:         0         0         0         0         0         0         0         0         0         0         0         0         0         0         0         0 
dram[6]:         0         0         0         0         0         0         0         0         0         0         0         0         0         0         0         0 
dram[7]:         0         0         0         0         0         0         0         0         0         0         0         0         0         0         0         0 
dram[8]:         0         0         0         0         0         0         0         0         0         0         0         0         0         0         0         0 
dram[9]:         0         0         0         0         0         0         0         0         0         0         0         0         0         0         0         0 
dram[10]:         0         0         0         0         0         0         0         0         0         0         0         0         0         0         0         0 
dram[11]:         0         0         0         0         0         0         0         0         0         0         0         0         0         0         0         0 
dram[12]:         0         0         0         0         0         0         0         0         0         0         0         0         0         0         0         0 
dram[13]:         0         0         0         0         0         0         0         0         0         0         0         0         0         0         0         0 
dram[14]:         0         0         0         0         0         0         0         0         0         0         0         0         0         0         0         0 
dram[15]:         0         0         0         0         0         0         0         0         0         0         0         0         0         0         0         0 
dram[16]:         0         0         0         0         0         0         0         0         0         0         0         0         0         0         0         0 
dram[17]:         0         0         0         0         0         0         0         0         0         0         0         0         0         0         0         0 
dram[18]:         0         0         0         0         0         0         0         0         0         0         0         0         0         0         0         0 
dram[19]:         0         0         0         0         0         0         0         0         0         0         0         0         0         0         0         0 
dram[20]:         0         0         0         0         0         0         0         0         0         0         0         0         0         0         0         0 
dram[21]:         0         0         0         0         0         0         0         0         0         0         0         0         0         0         0         0 
dram[22]:         0         0         0         0         0         0         0         0         0         0         0         0         0         0         0         0 
dram[23]:         0         0         0         0         0         0         0         0         0         0         0         0         0         0         0         0 
dram[24]:         0         0         0         0         0         0         0         0         0         0         0         0         0         0         0         0 
dram[25]:         0         0         0         0         0         0         0         0         0         0         0         0         0         0         0         0 
dram[26]:         0         0         0         0         0         0         0         0         0         0         0         0         0         0         0         0 
dram[27]:         0         0         0         0         0         0         0         0         0         0         0         0         0         0         0         0 
dram[28]:         0         0         0         0         0         0         0         0         0         0         0         0         0         0         0         0 
dram[29]:         0         0         0         0         0         0         0         0         0         0         0         0         0         0         0         0 
dram[30]:         0         0         0         0         0         0         0         0         0         0         0         0         0         0         0         0 
dram[31]:         0         0         0         0         0         0         0         0         0         0         0         0         0         0         0         0 
total accesses: 0
min_bank_accesses = 0!
min_chip_accesses = 0!
number of total read accesses:
[...]
n_nop = 127525 
Read = 6668 
Write = 0 
L2_Alloc = 0 
L2_WB = 2284 
n_act = 372 
n_pre = 356 
n_ref = 0 
n_req = 7239 
total_req = 8952 

Dual Bus Interface Util: 
issued_total_row = 728 
issued_total_col = 8952 
Row_Bus_Util =  0.005311 
CoL_Bus_Util = 0.065307 
Either_Row_CoL_Bus_Util = 0.069677 
Issued_on_Two_Bus_Simul_Util = 0.000941 
issued_two_Eff = 0.013506 
queue_avg = 0.640929 


dram_util_bins: 0 0 0 0 0 0 0 0 0 0
dram_eff_bins: 0 0 0 0 0 0 0 0 0 0
mrqq: max=63 avg=0.640929
Memory Partition 28: 
Cache L2_bank_056:

Cache L2_bank_057:

In Dram Latency Queue (total = 257): 
DRAM[28]: 16 bks, busW=16 BL=2 CL=12, tRRD=3 tCCD=1, tRCD=12 tRAS=28 tRP=12 tRC=40
n_cmd=137076 n_nop=127630 n_act=324 n_pre=308 n_ref_event=0 n_req=7233 n_rd=6672 n_rd_L2_A=0 n_write=0 n_wr_bk=2244 bw_util=0.06504
n_activity=32923 dram_eff=0.2708
bk0: 448a 135820i bk1: 448a 135670i bk2: 448a 135497i bk3: 448a 135337i bk4: 448a 135813i bk5: 448a 135861i bk6: 448a 135727i bk7: 448a 135566i bk8: 392a 136050i bk9: 408a 135860i bk10: 384a 135328i bk11: 384a 135502i bk12: 384a 135503i bk13: 384a 135572i bk14: 384a 135433i bk15: 368a 135629i 

------------------------------------------------------------------------

Row_Buffer_Locality = 0.955205
Row_Buffer_Locality_read = 0.958933
Row_Buffer_Locality_write = 0.910873
Bank_Level_Parallism = 1.444773
Bank_Level_Parallism_Col = 1.400163
Bank_Level_Parallism_Ready = 1.177209
write_to_read_ratio_blp_rw_average = 0.394301
GrpLevelPara = 1.333188 

BW Util details:
bwutil = 0.065044 
total_CMD = 137076 
util_bw = 8916 
Wasted_Col = 9646 
Wasted_Row = 2397 
Idle = 116117 

BW Util Bottlenecks: 
RCDc_limit = 2642 
RCDWRc_limit = 386 
WTRc_limit = 1032 
RTWc_limit = 4101 
CCDLc_limit = 4026 
rwq = 0 
CCDLc_limit_alone = 3594 
WTRc_limit_alone = 859 
RTWc_limit_alone = 3842 

Commands details: 
total_CMD = 137076 
n_nop = 127630 
Read = 6672 
Write = 0 
L2_Alloc = 0 
L2_WB = 2244 
n_act = 324 
n_pre = 308 
n_ref = 0 
n_req = 7233 
total_req = 8916 

Dual Bus Interface Util: 
issued_total_row = 632 
issued_total_col = 8916 
Row_Bus_Util =  0.004611 
CoL_Bus_Util = 0.065044 
Either_Row_CoL_Bus_Util = 0.068911 
Issued_on_Two_Bus_Simul_Util = 0.000744 
issued_two_Eff = 0.010798 
queue_avg = 0.587762 


dram_util_bins: 0 0 0 0 0 0 0 0 0 0
dram_eff_bins: 0 0 0 0 0 0 0 0 0 0
mrqq: max=40 avg=0.587762
Memory Partition 29: 
Cache L2_bank_058:

Cache L2_bank_059:

In Dram Latency Queue (total = 255): 
DRAM[29]: 16 bks, busW=16 BL=2 CL=12, tRRD=3 tCCD=1, tRCD=12 tRAS=28 tRP=12 tRC=40
n_cmd=137076 n_nop=127517 n_act=359 n_pre=343 n_ref_event=0 n_req=7261 n_rd=6688 n_rd_L2_A=0 n_write=0 n_wr_bk=2292 bw_util=0.06551
n_activity=33773 dram_eff=0.2659
bk0: 448a 135691i bk1: 448a 135742i bk2: 448a 135427i bk3: 448a 135370i bk4: 448a 135486i bk5: 448a 135646i bk6: 448a 135534i bk7: 444a 135750i bk8: 424a 135842i bk9: 396a 135844i bk10: 384a 135297i bk11: 384a 135490i bk12: 384a 135632i bk13: 384a 135189i bk14: 384a 135465i bk15: 368a 135593i 

------------------------------------------------------------------------

Row_Buffer_Locality = 0.950558
Row_Buffer_Locality_read = 0.953798
Row_Buffer_Locality_write = 0.912740
Bank_Level_Parallism = 1.456552
Bank_Level_Parallism_Col = 1.400873
Bank_Level_Parallism_Ready = 1.174053
write_to_read_ratio_blp_rw_average = 0.398999
GrpLevelPara = 1.340944 

BW Util details:
bwutil = 0.065511 
total_CMD = 137076 
util_bw = 8980 
Wasted_Col = 10022 
Wasted_Row = 2610 
Idle = 115464 

BW Util Bottlenecks: 
RCDc_limit = 2892 
RCDWRc_limit = 414 
WTRc_limit = 985 
RTWc_limit = 4264 
CCDLc_limit = 3989 
rwq = 0 
CCDLc_limit_alone = 3537 
WTRc_limit_alone = 828 
RTWc_limit_alone = 3969 

Commands details: 
total_CMD = 137076 
n_nop = 127517 
Read = 6688 
Write = 0 
L2_Alloc = 0 
L2_WB = 2292 
n_act = 359 
n_pre = 343 
n_ref = 0 
n_req = 7261 
total_req = 8980 

Dual Bus Interface Util: 
issued_total_row = 702 
issued_total_col = 8980 
Row_Bus_Util =  0.005121 
CoL_Bus_Util = 0.065511 
Either_Row_CoL_Bus_Util = 0.069735 
Issued_on_Two_Bus_Simul_Util = 0.000897 
issued_two_Eff = 0.012867 
queue_avg = 0.658102 


dram_util_bins: 0 0 0 0 0 0 0 0 0 0
dram_eff_bins: 0 0 0 0 0 0 0 0 0 0
mrqq: max=64 avg=0.658102
Memory Partition 30: 
Cache L2_bank_060:

Cache L2_bank_061:

In Dram Latency Queue (total = 257): 
DRAM[30]: 16 bks, busW=16 BL=2 CL=12, tRRD=3 tCCD=1, tRCD=12 tRAS=28 tRP=12 tRC=40
n_cmd=137076 n_nop=127549 n_act=356 n_pre=340 n_ref_event=0 n_req=7251 n_rd=6680 n_rd_L2_A=0 n_write=0 n_wr_bk=2284 bw_util=0.06539
n_activity=32751 dram_eff=0.2737
bk0: 448a 135738i bk1: 448a 135804i bk2: 448a 135261i bk3: 448a 135561i bk4: 448a 135593i bk5: 448a 135752i bk6: 448a 135720i bk7: 448a 135692i bk8: 408a 135915i bk9: 400a 135900i bk10: 384a 135370i bk11: 384a 135427i bk12: 384a 135359i bk13: 384a 135540i bk14: 384a 135448i bk15: 368a 135496i 

------------------------------------------------------------------------

Row_Buffer_Locality = 0.950903
Row_Buffer_Locality_read = 0.954641
Row_Buffer_Locality_write = 0.907180
Bank_Level_Parallism = 1.476272
Bank_Level_Parallism_Col = 1.402754
Bank_Level_Parallism_Ready = 1.152387
write_to_read_ratio_blp_rw_average = 0.387339
GrpLevelPara = 1.330485 

BW Util details:
bwutil = 0.065394 
total_CMD = 137076 
util_bw = 8964 
Wasted_Col = 9612 
Wasted_Row = 2349 
Idle = 116151 

BW Util Bottlenecks: 
RCDc_limit = 2812 
RCDWRc_limit = 409 
WTRc_limit = 1078 
RTWc_limit = 3881 
CCDLc_limit = 4219 
rwq = 0 
CCDLc_limit_alone = 3792 
WTRc_limit_alone = 903 
RTWc_limit_alone = 3629 

Commands details: 
total_CMD = 137076 
n_nop = 127549 
Read = 6680 
Write = 0 
L2_Alloc = 0 
L2_WB = 2284 
n_act = 356 
n_pre = 340 
n_ref = 0 
n_req = 7251 
total_req = 8964 

Dual Bus Interface Util: 
issued_total_row = 696 
issued_total_col = 8964 
Row_Bus_Util =  0.005077 
CoL_Bus_Util = 0.065394 
Either_Row_CoL_Bus_Util = 0.069502 
Issued_on_Two_Bus_Simul_Util = 0.000970 
issued_two_Eff = 0.013960 
queue_avg = 0.601265 


dram_util_bins: 0 0 0 0 0 0 0 0 0 0
dram_eff_bins: 0 0 0 0 0 0 0 0 0 0
mrqq: max=47 avg=0.601265
Memory Partition 31: 
Cache L2_bank_062:

Cache L2_bank_063:

In Dram Latency Queue (total = 256): 
DRAM[31]: 16 bks, busW=16 BL=2 CL=12, tRRD=3 tCCD=1, tRCD=12 tRAS=28 tRP=12 tRC=40
n_cmd=137076 n_nop=127471 n_act=376 n_pre=360 n_ref_event=0 n_req=7258 n_rd=6680 n_rd_L2_A=0 n_write=0 n_wr_bk=2312 bw_util=0.0656
n_activity=33223 dram_eff=0.2707
bk0: 448a 135473i bk1: 448a 135538i bk2: 448a 135330i bk3: 448a 135347i bk4: 448a 135669i bk5: 448a 135606i bk6: 448a 135717i bk7: 448a 135425i bk8: 408a 135904i bk9: 400a 135734i bk10: 384a 135322i bk11: 384a 135325i bk12: 384a 135493i bk13: 384a 135627i bk14: 384a 135513i bk15: 368a 135375i 

------------------------------------------------------------------------

Row_Buffer_Locality = 0.948195
Row_Buffer_Locality_read = 0.952395
Row_Buffer_Locality_write = 0.899654
Bank_Level_Parallism = 1.475776
Bank_Level_Parallism_Col = 1.420260
Bank_Level_Parallism_Ready = 1.170040
write_to_read_ratio_blp_rw_average = 0.407157
GrpLevelPara = 1.343830 

BW Util details:
bwutil = 0.065599 
total_CMD = 137076 
util_bw = 8992 
Wasted_Col = 9970 
Wasted_Row = 2773 
Idle = 115341 

BW Util Bottlenecks: 
RCDc_limit = 2985 
RCDWRc_limit = 445 
WTRc_limit = 980 
RTWc_limit = 4398 
CCDLc_limit = 4028 
rwq = 0 
CCDLc_limit_alone = 3609 
WTRc_limit_alone = 835 
RTWc_limit_alone = 4124 

Commands details: 
total_CMD = 137076 
n_nop = 127471 
Read = 6680 
Write = 0 
L2_Alloc = 0 
L2_WB = 2312 
n_act = 376 
n_pre = 360 
n_ref = 0 
n_req = 7258 
total_req = 8992 

Dual Bus Interface Util: 
issued_total_row = 736 
issued_total_col = 8992 
Row_Bus_Util =  0.005369 
CoL_Bus_Util = 0.065599 
Either_Row_CoL_Bus_Util = 0.070071 
Issued_on_Two_Bus_Simul_Util = 0.000897 
issued_two_Eff = 0.012806 
queue_avg = 0.580233 


dram_util_bins: 0 0 0 0 0 0 0 0 0 0
dram_eff_bins: 0 0 0 0 0 0 0 0 0 0
mrqq: max=48 avg=0.580233

========= L2 cache stats =========
L2_cache_bank[0]: Access = 14540, Miss = 5496, Miss_rate = 0.378, Pending_hits = 16, Reservation_fails = 0
L2_cache_bank[1]: Access = 15311, Miss = 5584, Miss_rate = 0.365, Pending_hits = 60, Reservation_fails = 0
L2_cache_bank[2]: Access = 15161, Miss = 5468, Miss_rate = 0.361, Pending_hits = 16, Reservation_fails = 0
L2_cache_bank[3]: Access = 15513, Miss = 5580, Miss_rate = 0.360, Pending_hits = 100, Reservation_fails = 0
L2_cache_bank[4]: Access = 15432, Miss = 5568, Miss_rate = 0.361, Pending_hits = 11, Reservation_fails = 0
L2_cache_bank[5]: Access = 15287, Miss = 5476, Miss_rate = 0.358, Pending_hits = 71, Reservation_fails = 0
L2_cache_bank[6]: Access = 14933, Miss = 5480, Miss_rate = 0.367, Pending_hits = 8, Reservation_fails = 0
L2_cache_bank[7]: Access = 15842, Miss = 5560, Miss_rate = 0.351, Pending_hits = 64, Reservation_fails = 0
L2_cache_bank[8]: Access = 15627, Miss = 5580, Miss_rate = 0.357, Pending_hits = 21, Reservation_fails = 0
L2_cache_bank[9]: Access = 15159, Miss = 5476, Miss_rate = 0.361, Pending_hits = 92, Reservation_fails = 0
L2_cache_bank[10]: Access = 15186, Miss = 5508, Miss_rate = 0.363, Pending_hits = 20, Reservation_fails = 0
L2_cache_bank[11]: Access = 15467, Miss = 5528, Miss_rate = 0.357, Pending_hits = 68, Reservation_fails = 0
L2_cache_bank[12]: Access = 15129, Miss = 5496, Miss_rate = 0.363, Pending_hits = 28, Reservation_fails = 0
L2_cache_bank[13]: Access = 15712, Miss = 5544, Miss_rate = 0.353, Pending_hits = 83, Reservation_fails = 0
L2_cache_bank[14]: Access = 14960, Miss = 5448, Miss_rate = 0.364, Pending_hits = 18, Reservation_fails = 0
L2_cache_bank[15]: Access = 15557, Miss = 5600, Miss_rate = 0.360, Pending_hits = 68, Reservation_fails = 0
L2_cache_bank[16]: Access = 15055, Miss = 5592, Miss_rate = 0.371, Pending_hits = 56, Reservation_fails = 0
L2_cache_bank[17]: Access = 14822, Miss = 5528, Miss_rate = 0.373, Pending_hits = 41, Reservation_fails = 0
L2_cache_bank[18]: Access = 15258, Miss = 5560, Miss_rate = 0.364, Pending_hits = 37, Reservation_fails = 0
L2_cache_bank[19]: Access = 15455, Miss = 5577, Miss_rate = 0.361, Pending_hits = 53, Reservation_fails = 0
L2_cache_bank[20]: Access = 15315, Miss = 5556, Miss_rate = 0.363, Pending_hits = 27, Reservation_fails = 0
L2_cache_bank[21]: Access = 15409, Miss = 5560, Miss_rate = 0.361, Pending_hits = 64, Reservation_fails = 0
L2_cache_bank[22]: Access = 15352, Miss = 5556, Miss_rate = 0.362, Pending_hits = 36, Reservation_fails = 0
L2_cache_bank[23]: Access = 15540, Miss = 5564, Miss_rate = 0.358, Pending_hits = 51, Reservation_fails = 0
L2_cache_bank[24]: Access = 15568, Miss = 5576, Miss_rate = 0.358, Pending_hits = 44, Reservation_fails = 0
L2_cache_bank[25]: Access = 15145, Miss = 5508, Miss_rate = 0.364, Pending_hits = 60, Reservation_fails = 0
L2_cache_bank[26]: Access = 15656, Miss = 5576, Miss_rate = 0.356, Pending_hits = 37, Reservation_fails = 0
L2_cache_bank[27]: Access = 15117, Miss = 5528, Miss_rate = 0.366, Pending_hits = 48, Reservation_fails = 0
L2_cache_bank[28]: Access = 15455, Miss = 5572, Miss_rate = 0.361, Pending_hits = 65, Reservation_fails = 0
L2_cache_bank[29]: Access = 15517, Miss = 5544, Miss_rate = 0.357, Pending_hits = 64, Reservation_fails = 0
L2_cache_bank[30]: Access = 15225, Miss = 5580, Miss_rate = 0.367, Pending_hits = 61, Reservation_fails = 0
L2_cache_bank[31]: Access = 15105, Miss = 5501, Miss_rate = 0.364, Pending_hits = 76, Reservation_fails = 0
L2_cache_bank[32]: Access = 15255, Miss = 5536, Miss_rate = 0.363, Pending_hits = 53, Reservation_fails = 0
L2_cache_bank[33]: Access = 14718, Miss = 5540, Miss_rate = 0.376, Pending_hits = 48, Reservation_fails = 0
L2_cache_bank[34]: Access = 15377, Miss = 5500, Miss_rate = 0.358, Pending_hits = 16, Reservation_fails = 0
L2_cache_bank[35]: Access = 15264, Miss = 5592, Miss_rate = 0.366, Pending_hits = 42, Reservation_fails = 0
L2_cache_bank[36]: Access = 15361, Miss = 5492, Miss_rate = 0.358, Pending_hits = 28, Reservation_fails = 0
L2_cache_bank[37]: Access = 15307, Miss = 5584, Miss_rate = 0.365, Pending_hits = 52, Reservation_fails = 0
L2_cache_bank[38]: Access = 15394, Miss = 5524, Miss_rate = 0.359, Pending_hits = 52, Reservation_fails = 0
L2_cache_bank[39]: Access = 15533, Miss = 5560, Miss_rate = 0.358, Pending_hits = 44, Reservation_fails = 0
L2_cache_bank[40]: Access = 15421, Miss = 5488, Miss_rate = 0.356, Pending_hits = 30, Reservation_fails = 0
L2_cache_bank[41]: Access = 15460, Miss = 5584, Miss_rate = 0.361, Pending_hits = 29, Reservation_fails = 0
L2_cache_bank[42]: Access = 15939, Miss = 5581, Miss_rate = 0.350, Pending_hits = 24, Reservation_fails = 0
L2_cache_bank[43]: Access = 14945, Miss = 5484, Miss_rate = 0.367, Pending_hits = 28, Reservation_fails = 0
L2_cache_bank[44]: Access = 15409, Miss = 5548, Miss_rate = 0.360, Pending_hits = 24, Reservation_fails = 0
L2_cache_bank[45]: Access = 15220, Miss = 5524, Miss_rate = 0.363, Pending_hits = 29, Reservation_fails = 0
L2_cache_bank[46]: Access = 15156, Miss = 5525, Miss_rate = 0.365, Pending_hits = 26, Reservation_fails = 0
L2_cache_bank[47]: Access = 15124, Miss = 5544, Miss_rate = 0.367, Pending_hits = 8, Reservation_fails = 0
L2_cache_bank[48]: Access = 15318, Miss = 5628, Miss_rate = 0.367, Pending_hits = 64, Reservation_fails = 0
L2_cache_bank[49]: Access = 14532, Miss = 5452, Miss_rate = 0.375, Pending_hits = 24, Reservation_fails = 0
L2_cache_bank[50]: Access = 15643, Miss = 5520, Miss_rate = 0.353, Pending_hits = 60, Reservation_fails = 0
L2_cache_bank[51]: Access = 15021, Miss = 5516, Miss_rate = 0.367, Pending_hits = 28, Reservation_fails = 0
L2_cache_bank[52]: Access = 15145, Miss = 5496, Miss_rate = 0.363, Pending_hits = 60, Reservation_fails = 0
L2_cache_bank[53]: Access = 15279, Miss = 5581, Miss_rate = 0.365, Pending_hits = 16, Reservation_fails = 0
L2_cache_bank[54]: Access = 15223, Miss = 5504, Miss_rate = 0.362, Pending_hits = 60, Reservation_fails = 0
L2_cache_bank[55]: Access = 15467, Miss = 5556, Miss_rate = 0.359, Pending_hits = 20, Reservation_fails = 0
L2_cache_bank[56]: Access = 15508, Miss = 5460, Miss_rate = 0.352, Pending_hits = 48, Reservation_fails = 0
L2_cache_bank[57]: Access = 15398, Miss = 5572, Miss_rate = 0.362, Pending_hits = 29, Reservation_fails = 0
L2_cache_bank[58]: Access = 15559, Miss = 5620, Miss_rate = 0.361, Pending_hits = 48, Reservation_fails = 0
L2_cache_bank[59]: Access = 15264, Miss = 5444, Miss_rate = 0.357, Pending_hits = 36, Reservation_fails = 0
L2_cache_bank[60]: Access = 15681, Miss = 5608, Miss_rate = 0.358, Pending_hits = 44, Reservation_fails = 0
L2_cache_bank[61]: Access = 15035, Miss = 5456, Miss_rate = 0.363, Pending_hits = 47, Reservation_fails = 0
L2_cache_bank[62]: Access = 15352, Miss = 5616, Miss_rate = 0.366, Pending_hits = 48, Reservation_fails = 0
L2_cache_bank[63]: Access = 14738, Miss = 5452, Miss_rate = 0.370, Pending_hits = 31, Reservation_fails = 0
L2_total_cache_accesses = 978856
L2_total_cache_misses = 354357
L2_total_cache_miss_rate = 0.3620
L2_total_cache_pending_hits = 2760
L2_total_cache_reservation_fails = 0
L2_total_cache_breakdown:
	L2_cache_stats_breakdown[GLOBAL_ACC_R][HIT] = 621739
	L2_cache_stats_breakdown[GLOBAL_ACC_R][HIT_RESERVED] = 2760
	L2_cache_stats_breakdown[GLOBAL_ACC_R][MISS] = 53661
	L2_cache_stats_breakdown[GLOBAL_ACC_R][RESERVATION_FAIL] = 0
	L2_cache_stats_breakdown[GLOBAL_ACC_R][SECTOR_MISS] = 160983
	L2_cache_stats_breakdown[LOCAL_ACC_R][HIT] = 0
	L2_cache_stats_breakdown[LOCAL_ACC_R][HIT_RESERVED] = 0
	L2_cache_stats_breakdown[LOCAL_ACC_R][MISS] = 0
	L2_cache_stats_breakdown[LOCAL_ACC_R][RESERVATION_FAIL] = 0
	L2_cache_stats_breakdown[LOCAL_ACC_R][SECTOR_MISS] = 0
	L2_cache_stats_breakdown[CONST_ACC_R][HIT] = 0
	L2_cache_stats_breakdown[CONST_ACC_R][HIT_RESERVED] = 0
	L2_cache_stats_breakdown[CONST_ACC_R][MISS] = 0
	L2_cache_stats_breakdown[CONST_ACC_R][RESERVATION_FAIL] = 0
	L2_cache_stats_breakdown[CONST_ACC_R][SECTOR_MISS] = 0
	L2_cache_stats_breakdown[TEXTURE_ACC_R][HIT] = 0
	L2_cache_stats_breakdown[TEXTURE_ACC_R][HIT_RESERVED] = 0
	L2_cache_stats_breakdown[TEXTURE_ACC_R][MISS] = 0
	L2_cache_stats_breakdown[TEXTURE_ACC_R][RESERVATION_FAIL] = 0
	L2_cache_stats_breakdown[TEXTURE_ACC_R][SECTOR_MISS] = 0
	L2_cache_stats_breakdown[GLOBAL_ACC_W][HIT] = 0
	L2_cache_stats_breakdown[GLOBAL_ACC_W][HIT_RESERVED] = 0
	L2_cache_stats_breakdown[GLOBAL_ACC_W][MISS] = 34932
	L2_cache_stats_breakdown[GLOBAL_ACC_W][RESERVATION_FAIL] = 0
	L2_cache_stats_breakdown[GLOBAL_ACC_W][SECTOR_MISS] = 104781
	L2_cache_stats_breakdown[LOCAL_ACC_W][HIT] = 0
	L2_cache_stats_breakdown[LOCAL_ACC_W][HIT_RESERVED] = 0
	L2_cache_stats_breakdown[LOCAL_ACC_W][MISS] = 0
	L2_cache_stats_breakdown[LOCAL_ACC_W][RESERVATION_FAIL] = 0
	L2_cache_stats_breakdown[LOCAL_ACC_W][SECTOR_MISS] = 0
	L2_cache_stats_breakdown[L1_WRBK_ACC][HIT] = 0
	L2_cache_stats_breakdown[L1_WRBK_ACC][HIT_RESERVED] = 0
	L2_cache_stats_breakdown[L1_WRBK_ACC][MISS] = 0
	L2_cache_stats_breakdown[L1_WRBK_ACC][RESERVATION_FAIL] = 0
	L2_cache_stats_breakdown[L1_WRBK_ACC][SECTOR_MISS] = 0
	L2_cache_stats_breakdown[L2_WRBK_ACC][HIT] = 0
	L2_cache_stats_breakdown[L2_WRBK_ACC][HIT_RESERVED] = 0
	L2_cache_stats_breakdown[L2_WRBK_ACC][MISS] = 0
	L2_cache_stats_breakdown[L2_WRBK_ACC][RESERVATION_FAIL] = 0
	L2_cache_stats_breakdown[L2_WRBK_ACC][SECTOR_MISS] = 0
	L2_cache_stats_breakdown[INST_ACC_R][HIT] = 0
	L2_cache_stats_breakdown[INST_ACC_R][HIT_RESERVED] = 0
	L2_cache_stats_breakdown[INST_ACC_R][MISS] = 0
	L2_cache_stats_breakdown[INST_ACC_R][RESERVATION_FAIL] = 0
	L2_cache_stats_breakdown[INST_ACC_R][SECTOR_MISS] = 0
	L2_cache_stats_breakdown[L1_WR_ALLOC_R][HIT] = 0
	L2_cache_stats_breakdown[L1_WR_ALLOC_R][HIT_RESERVED] = 0
	L2_cache_stats_breakdown[L1_WR_ALLOC_R][MISS] = 0
	L2_cache_stats_breakdown[L1_WR_ALLOC_R][RESERVATION_FAIL] = 0
	L2_cache_stats_breakdown[L1_WR_ALLOC_R][SECTOR_MISS] = 0
	L2_cache_stats_breakdown[L2_WR_ALLOC_R][HIT] = 0
	L2_cache_stats_breakdown[L2_WR_ALLOC_R][HIT_RESERVED] = 0
	L2_cache_stats_breakdown[L2_WR_ALLOC_R][MISS] = 0
	L2_cache_stats_breakdown[L2_WR_ALLOC_R][RESERVATION_FAIL] = 0
	L2_cache_stats_breakdown[L2_WR_ALLOC_R][SECTOR_MISS] = 0
	L2_cache_stats_breakdown[GLOBAL_ACC_R][TOTAL_ACCESS] = 839143
	L2_cache_stats_breakdown[GLOBAL_ACC_W][TOTAL_ACCESS] = 139713
L2_total_cache_reservation_fail_breakdown:
L2_cache_data_port_util = 0.056
L2_cache_fill_port_util = 0.018

icnt_total_pkts_mem_to_simt=3115083
icnt_total_pkts_simt_to_mem=3171126
LD_mem_lat_dist  0 0 0 0 0 0 0 0 0 0 0 0 0 0 0 0 0 0 0 0 0 0 0 0 0 0 0
ST_mem_lat_dist  0 0 0 0 0 0 0 0 0 0 0 0 0 0 0 0 0 0 0 0 0 0 0 0 0 0 0
----------------------------Interconnect-DETAILS--------------------------------
Req_Network_injected_packets_num = 3171126
Req_Network_cycles = 182553
Req_Network_injected_packets_per_cycle =      17.3710 
Req_Network_conflicts_per_cycle =      40.9708
Req_Network_conflicts_per_cycle_util =      42.2530
Req_Bank_Level_Parallism =      17.7943
Req_Network_in_buffer_full_per_cycle =      21.5548
Req_Network_in_buffer_avg_util =     262.7608
Req_Network_out_buffer_full_per_cycle =       1.3352
Req_Network_out_buffer_avg_util =     200.4565

Reply_Network_injected_packets_num = 3115152
Reply_Network_cycles = 182553
Reply_Network_injected_packets_per_cycle =       17.0644
Reply_Network_conflicts_per_cycle =        4.0677
Reply_Network_conflicts_per_cycle_util =       4.2335
Reply_Bank_Level_Parallism =      17.7595
Reply_Network_in_buffer_full_per_cycle =       0.0000
Reply_Network_in_buffer_avg_util =       0.2303
Reply_Network_out_buffer_full_per_cycle =       0.0000
Reply_Network_out_buffer_avg_util =       0.2133
----------------------------END-of-Interconnect-DETAILS-------------------------


gpgpu_simulation_time = 0 days, 0 hrs, 25 min, 42 sec (1542 sec)
gpgpu_simulation_rate = 52387 (inst/sec)
gpgpu_simulation_rate = 118 (cycle/sec)
gpgpu_silicon_slowdown = 9593220x
GPGPU-Sim: *** simulation thread exiting ***
GPGPU-Sim: ** break due to reaching the maximum cycles (or instructions) **
GPGPU-Sim: *** exit detected ***
