

        *** GPGPU-Sim Simulator Version 4.0.0  [build gpgpu-sim_git-commit-ffe0a1a00e984ecce9bf36e17ab94c4de0de8108_modified_0.0] ***


GPGPU-Sim PTX: simulation mode 0 (can change with PTX_SIM_MODE_FUNC environment variable:
               1=functional simulation only, 0=detailed performance simulator)
GPGPU-Sim PTX: overriding embedded ptx with ptx file (PTX_SIM_USE_PTX_FILE is set)
GPGPU-Sim: Configuration options:

-save_embedded_ptx                      0 # saves ptx files embedded in binary as <n>.ptx
-keep                                   0 # keep intermediate files created by GPGPU-Sim when interfacing with external programs
-gpgpu_ptx_save_converted_ptxplus                    0 # Saved converted ptxplus to a file
-gpgpu_occupancy_sm_number                   70 # The SM number to pass to ptxas when getting register usage for computing GPU occupancy. This parameter is required in the config.
-ptx_opcode_latency_int      4,13,4,5,145,21 # Opcode latencies for integers <ADD,MAX,MUL,MAD,DIV,SHFL>Default 1,1,19,25,145,32
-ptx_opcode_latency_fp          4,13,4,5,39 # Opcode latencies for single precision floating points <ADD,MAX,MUL,MAD,DIV>Default 1,1,1,1,30
-ptx_opcode_latency_dp         8,19,8,8,330 # Opcode latencies for double precision floating points <ADD,MAX,MUL,MAD,DIV>Default 8,8,8,8,335
-ptx_opcode_latency_sfu                  100 # Opcode latencies for SFU instructionsDefault 8
-ptx_opcode_latency_tesnor                   64 # Opcode latencies for Tensor instructionsDefault 64
-ptx_opcode_initiation_int          2,2,2,2,8,4 # Opcode initiation intervals for integers <ADD,MAX,MUL,MAD,DIV,SHFL>Default 1,1,4,4,32,4
-ptx_opcode_initiation_fp            2,2,2,2,4 # Opcode initiation intervals for single precision floating points <ADD,MAX,MUL,MAD,DIV>Default 1,1,1,1,5
-ptx_opcode_initiation_dp          4,4,4,4,130 # Opcode initiation intervals for double precision floating points <ADD,MAX,MUL,MAD,DIV>Default 8,8,8,8,130
-ptx_opcode_initiation_sfu                    8 # Opcode initiation intervals for sfu instructionsDefault 8
-ptx_opcode_initiation_tensor                   64 # Opcode initiation intervals for tensor instructionsDefault 64
-cdp_latency         7200,8000,100,12000,1600 # CDP API latency <cudaStreamCreateWithFlags, cudaGetParameterBufferV2_init_perWarp, cudaGetParameterBufferV2_perKernel, cudaLaunchDeviceV2_init_perWarp, cudaLaunchDevicV2_perKernel>Default 7200,8000,100,12000,1600
-network_mode                           2 # Interconnection network mode
-inter_config_file                   mesh # Interconnection network config file
-icnt_in_buffer_limit                  512 # in_buffer_limit
-icnt_out_buffer_limit                  512 # out_buffer_limit
-icnt_subnets                           2 # subnets
-icnt_arbiter_algo                      1 # arbiter_algo
-icnt_verbose                           0 # inct_verbose
-icnt_grant_cycles                      1 # grant_cycles
-gpgpu_ptx_use_cuobjdump                    1 # Use cuobjdump to extract ptx and sass from binaries
-gpgpu_experimental_lib_support                    0 # Try to extract code from cuda libraries [Broken because of unknown cudaGetExportTable]
-checkpoint_option                      0 #  checkpointing flag (0 = no checkpoint)
-checkpoint_kernel                      1 #  checkpointing during execution of which kernel (1- 1st kernel)
-checkpoint_CTA                         0 #  checkpointing after # of CTA (< less than total CTA)
-resume_option                          0 #  resume flag (0 = no resume)
-resume_kernel                          0 #  Resume from which kernel (1= 1st kernel)
-resume_CTA                             0 #  resume from which CTA 
-checkpoint_CTA_t                       0 #  resume from which CTA 
-checkpoint_insn_Y                      0 #  resume from which CTA 
-gpgpu_ptx_convert_to_ptxplus                    0 # Convert SASS (native ISA) to ptxplus and run ptxplus
-gpgpu_ptx_force_max_capability                   70 # Force maximum compute capability
-gpgpu_ptx_inst_debug_to_file                    0 # Dump executed instructions' debug information to file
-gpgpu_ptx_inst_debug_file       inst_debug.txt # Executed instructions' debug output file
-gpgpu_ptx_inst_debug_thread_uid                    1 # Thread UID for executed instructions' debug output
-gpgpu_n_mem_for_l2wb_pcommit                   32 # number of memory modules (e.g. memory controllers) in gpu
-gpgpu_n_sub_partition_per_mchannel_for_l2wb_pcommit                    2 # number of memory subpartition in each memory module
-gpgpu_dl2_bsize_for_l2wb_pcommit                  128 # default 128 bytes
-gpgpu_simd_model                       1 # 1 = post-dominator
-gpgpu_shader_core_pipeline              2048:32 # shader core pipeline config, i.e., {<nthread>:<warpsize>}
-gpgpu_tex_cache:l1  N:4:128:256,L:R:m:N:L,T:512:8,128:2 # per-shader L1 texture cache  (READ-ONLY) config  {<nsets>:<bsize>:<assoc>,<rep>:<wr>:<alloc>:<wr_alloc>,<mshr>:<N>:<merge>,<mq>:<rf>}
-gpgpu_const_cache:l1 N:128:64:8,L:R:f:N:L,S:2:64,4 # per-shader L1 constant memory cache  (READ-ONLY) config  {<nsets>:<bsize>:<assoc>,<rep>:<wr>:<alloc>:<wr_alloc>,<mshr>:<N>:<merge>,<mq>} 
-gpgpu_cache:il1     N:64:128:16,L:R:f:N:L,S:2:48,4 # shader L1 instruction cache config  {<nsets>:<bsize>:<assoc>,<rep>:<wr>:<alloc>:<wr_alloc>,<mshr>:<N>:<merge>,<mq>} 
-gpgpu_cache:dl1     S:1:128:256,L:L:s:N:L,A:256:8,16:0,32 # per-shader L1 data cache config  {<nsets>:<bsize>:<assoc>,<rep>:<wr>:<alloc>:<wr_alloc>,<mshr>:<N>:<merge>,<mq> | none}
-gpgpu_l1_banks                         4 # The number of L1 cache banks
-gpgpu_l1_banks_byte_interleaving                   32 # l1 banks byte interleaving granularity
-gpgpu_l1_banks_hashing_function                    0 # l1 banks hashing function
-gpgpu_l1_latency                      20 # L1 Hit Latency
-gpgpu_smem_latency                    20 # smem Latency
-gpgpu_cache:dl1PrefL1                 none # per-shader L1 data cache config  {<nsets>:<bsize>:<assoc>,<rep>:<wr>:<alloc>:<wr_alloc>,<mshr>:<N>:<merge>,<mq> | none}
-gpgpu_cache:dl1PrefShared                 none # per-shader L1 data cache config  {<nsets>:<bsize>:<assoc>,<rep>:<wr>:<alloc>:<wr_alloc>,<mshr>:<N>:<merge>,<mq> | none}
-gpgpu_gmem_skip_L1D                    0 # global memory access skip L1D cache (implements -Xptxas -dlcm=cg, default=no skip)
-gpgpu_perfect_mem                      0 # enable perfect memory mode (no cache miss)
-n_regfile_gating_group                    4 # group of lanes that should be read/written together)
-gpgpu_clock_gated_reg_file                    0 # enable clock gated reg file for power calculations
-gpgpu_clock_gated_lanes                    0 # enable clock gated lanes for power calculations
-gpgpu_shader_registers                65536 # Number of registers per shader core. Limits number of concurrent CTAs. (default 8192)
-gpgpu_registers_per_block                65536 # Maximum number of registers per CTA. (default 8192)
-gpgpu_ignore_resources_limitation                    0 # gpgpu_ignore_resources_limitation (default 0)
-gpgpu_shader_cta                      32 # Maximum number of concurrent CTAs in shader (default 8)
-gpgpu_num_cta_barriers                   16 # Maximum number of named barriers per CTA (default 16)
-gpgpu_n_clusters                      80 # number of processing clusters
-gpgpu_n_cores_per_cluster                    1 # number of simd cores per cluster
-gpgpu_n_cluster_ejection_buffer_size                   32 # number of packets in ejection buffer
-gpgpu_n_ldst_response_buffer_size                    2 # number of response packets in ld/st unit ejection buffer
-gpgpu_shmem_per_block                65536 # Size of shared memory per thread block or CTA (default 48kB)
-gpgpu_shmem_size                   98304 # Size of shared memory per shader core (default 16kB)
-gpgpu_adaptive_cache_config            536870913 # adaptive_cache_config
-gpgpu_shmem_sizeDefault                98304 # Size of shared memory per shader core (default 16kB)
-gpgpu_shmem_size_PrefL1                16384 # Size of shared memory per shader core (default 16kB)
-gpgpu_shmem_size_PrefShared                16384 # Size of shared memory per shader core (default 16kB)
-gpgpu_shmem_num_banks                   32 # Number of banks in the shared memory in each shader core (default 16)
-gpgpu_shmem_limited_broadcast                    0 # Limit shared memory to do one broadcast per cycle (default on)
-gpgpu_shmem_warp_parts                    1 # Number of portions a warp is divided into for shared memory bank conflict check 
-gpgpu_mem_unit_ports                    1 # The number of memory transactions allowed per core cycle
-gpgpu_shmem_warp_parts                    1 # Number of portions a warp is divided into for shared memory bank conflict check 
-gpgpu_warpdistro_shader                   -1 # Specify which shader core to collect the warp size distribution from
-gpgpu_warp_issue_shader                    0 # Specify which shader core to collect the warp issue distribution from
-gpgpu_local_mem_map                    1 # Mapping from local memory space address to simulated GPU physical address space (default = enabled)
-gpgpu_num_reg_banks                   16 # Number of register banks (default = 8)
-gpgpu_reg_bank_use_warp_id                    0 # Use warp ID in mapping registers to banks (default = off)
-gpgpu_sub_core_model                    1 # Sub Core Volta/Pascal model (default = off)
-gpgpu_enable_specialized_operand_collector                    0 # enable_specialized_operand_collector
-gpgpu_operand_collector_num_units_sp                    4 # number of collector units (default = 4)
-gpgpu_operand_collector_num_units_dp                    0 # number of collector units (default = 0)
-gpgpu_operand_collector_num_units_sfu                    4 # number of collector units (default = 4)
-gpgpu_operand_collector_num_units_int                    0 # number of collector units (default = 0)
-gpgpu_operand_collector_num_units_tensor_core                    4 # number of collector units (default = 4)
-gpgpu_operand_collector_num_units_mem                    2 # number of collector units (default = 2)
-gpgpu_operand_collector_num_units_gen                    8 # number of collector units (default = 0)
-gpgpu_operand_collector_num_in_ports_sp                    1 # number of collector unit in ports (default = 1)
-gpgpu_operand_collector_num_in_ports_dp                    0 # number of collector unit in ports (default = 0)
-gpgpu_operand_collector_num_in_ports_sfu                    1 # number of collector unit in ports (default = 1)
-gpgpu_operand_collector_num_in_ports_int                    0 # number of collector unit in ports (default = 0)
-gpgpu_operand_collector_num_in_ports_tensor_core                    1 # number of collector unit in ports (default = 1)
-gpgpu_operand_collector_num_in_ports_mem                    1 # number of collector unit in ports (default = 1)
-gpgpu_operand_collector_num_in_ports_gen                    8 # number of collector unit in ports (default = 0)
-gpgpu_operand_collector_num_out_ports_sp                    1 # number of collector unit in ports (default = 1)
-gpgpu_operand_collector_num_out_ports_dp                    0 # number of collector unit in ports (default = 0)
-gpgpu_operand_collector_num_out_ports_sfu                    1 # number of collector unit in ports (default = 1)
-gpgpu_operand_collector_num_out_ports_int                    0 # number of collector unit in ports (default = 0)
-gpgpu_operand_collector_num_out_ports_tensor_core                    1 # number of collector unit in ports (default = 1)
-gpgpu_operand_collector_num_out_ports_mem                    1 # number of collector unit in ports (default = 1)
-gpgpu_operand_collector_num_out_ports_gen                    8 # number of collector unit in ports (default = 0)
-gpgpu_coalesce_arch                   60 # Coalescing arch (GT200 = 13, Fermi = 20)
-gpgpu_num_sched_per_core                    4 # Number of warp schedulers per core
-gpgpu_max_insn_issue_per_warp                    1 # Max number of instructions that can be issued per warp in one cycle by scheduler (either 1 or 2)
-gpgpu_dual_issue_diff_exec_units                    1 # should dual issue use two different execution unit resources (Default = 1)
-gpgpu_simt_core_sim_order                    1 # Select the simulation order of cores in a cluster (0=Fix, 1=Round-Robin)
-gpgpu_pipeline_widths 4,4,4,4,4,4,4,4,4,4,8,4,4 # Pipeline widths ID_OC_SP,ID_OC_DP,ID_OC_INT,ID_OC_SFU,ID_OC_MEM,OC_EX_SP,OC_EX_DP,OC_EX_INT,OC_EX_SFU,OC_EX_MEM,EX_WB,ID_OC_TENSOR_CORE,OC_EX_TENSOR_CORE
-gpgpu_tensor_core_avail                    1 # Tensor Core Available (default=0)
-gpgpu_num_sp_units                     4 # Number of SP units (default=1)
-gpgpu_num_dp_units                     4 # Number of DP units (default=0)
-gpgpu_num_int_units                    4 # Number of INT units (default=0)
-gpgpu_num_sfu_units                    4 # Number of SF units (default=1)
-gpgpu_num_tensor_core_units                    4 # Number of tensor_core units (default=1)
-gpgpu_num_mem_units                    1 # Number if ldst units (default=1) WARNING: not hooked up to anything
-gpgpu_scheduler                      gto # Scheduler configuration: < lrr | gto | two_level_active > If two_level_active:<num_active_warps>:<inner_prioritization>:<outer_prioritization>For complete list of prioritization values see shader.h enum scheduler_prioritization_typeDefault: gto
-gpgpu_concurrent_kernel_sm                    0 # Support concurrent kernels on a SM (default = disabled)
-gpgpu_perfect_inst_const_cache                    1 # perfect inst and const cache mode, so all inst and const hits in the cache(default = disabled)
-gpgpu_inst_fetch_throughput                    4 # the number of fetched intruction per warp each cycle
-gpgpu_reg_file_port_throughput                    2 # the number ports of the register file
-specialized_unit_1         0,4,4,4,4,BRA # specialized unit config {<enabled>,<num_units>:<latency>:<initiation>,<ID_OC_SPEC>:<OC_EX_SPEC>,<NAME>}
-specialized_unit_2         0,4,4,4,4,BRA # specialized unit config {<enabled>,<num_units>:<latency>:<initiation>,<ID_OC_SPEC>:<OC_EX_SPEC>,<NAME>}
-specialized_unit_3         0,4,4,4,4,BRA # specialized unit config {<enabled>,<num_units>:<latency>:<initiation>,<ID_OC_SPEC>:<OC_EX_SPEC>,<NAME>}
-specialized_unit_4         0,4,4,4,4,BRA # specialized unit config {<enabled>,<num_units>:<latency>:<initiation>,<ID_OC_SPEC>:<OC_EX_SPEC>,<NAME>}
-specialized_unit_5         0,4,4,4,4,BRA # specialized unit config {<enabled>,<num_units>:<latency>:<initiation>,<ID_OC_SPEC>:<OC_EX_SPEC>,<NAME>}
-specialized_unit_6         0,4,4,4,4,BRA # specialized unit config {<enabled>,<num_units>:<latency>:<initiation>,<ID_OC_SPEC>:<OC_EX_SPEC>,<NAME>}
-specialized_unit_7         0,4,4,4,4,BRA # specialized unit config {<enabled>,<num_units>:<latency>:<initiation>,<ID_OC_SPEC>:<OC_EX_SPEC>,<NAME>}
-specialized_unit_8         0,4,4,4,4,BRA # specialized unit config {<enabled>,<num_units>:<latency>:<initiation>,<ID_OC_SPEC>:<OC_EX_SPEC>,<NAME>}
-gpgpu_perf_sim_memcpy                    1 # Fill the L2 cache on memcpy
-gpgpu_simple_dram_model                    0 # simple_dram_model with fixed latency and BW
-gpgpu_dram_scheduler                    1 # 0 = fifo, 1 = FR-FCFS (defaul)
-gpgpu_dram_partition_queues          64:64:64:64 # i2$:$2d:d2$:$2i
-l2_ideal                               0 # Use a ideal L2 cache that always hit
-gpgpu_cache:dl2     S:32:128:24,L:B:m:L:P,A:192:4,32:0,32 # unified banked L2 data cache config  {<nsets>:<bsize>:<assoc>,<rep>:<wr>:<alloc>:<wr_alloc>,<mshr>:<N>:<merge>,<mq>}
-gpgpu_cache:dl2_texture_only                    0 # L2 cache used for texture only
-gpgpu_n_mem                           32 # number of memory modules (e.g. memory controllers) in gpu
-gpgpu_n_sub_partition_per_mchannel                    2 # number of memory subpartition in each memory module
-gpgpu_n_mem_per_ctrlr                    1 # number of memory chips per memory controller
-gpgpu_memlatency_stat                   14 # track and display latency statistics 0x2 enables MC, 0x4 enables queue logs
-gpgpu_frfcfs_dram_sched_queue_size                   64 # 0 = unlimited (default); # entries per chip
-gpgpu_dram_return_queue_size                  192 # 0 = unlimited (default); # entries per chip
-gpgpu_dram_buswidth                   16 # default = 4 bytes (8 bytes per cycle at DDR)
-gpgpu_dram_burst_length                    2 # Burst length of each DRAM request (default = 4 data bus cycle)
-dram_data_command_freq_ratio                    2 # Frequency ratio between DRAM data bus and command bus (default = 2 times, i.e. DDR)
-gpgpu_dram_timing_opt nbk=16:CCD=1:RRD=3:RCD=12:RAS=28:RP=12:RC=40: CL=12:WL=2:CDLR=3:WR=10:nbkgrp=4:CCDL=2:RTPL=3 # DRAM timing parameters = {nbk:tCCD:tRRD:tRCD:tRAS:tRP:tRC:CL:WL:tCDLR:tWR:nbkgrp:tCCDL:tRTPL}
-gpgpu_l2_rop_latency                  160 # ROP queue latency (default 85)
-dram_latency                         200 # DRAM latency (default 30)
-dram_write_latency                   600 # DRAM write latency (default 100)
-dram_dual_bus_interface                    1 # dual_bus_interface (default = 0) 
-dram_bnk_indexing_policy                    0 # dram_bnk_indexing_policy (0 = normal indexing, 1 = Xoring with the higher bits) (Default = 0)
-dram_bnkgrp_indexing_policy                    1 # dram_bnkgrp_indexing_policy (0 = take higher bits, 1 = take lower bits) (Default = 0)
-dram_seperate_write_queue_enable                    0 # Seperate_Write_Queue_Enable
-dram_write_queue_size             32:28:16 # Write_Queue_Size
-dram_elimnate_rw_turnaround                    0 # elimnate_rw_turnaround i.e set tWTR and tRTW = 0
-icnt_flit_size                        40 # icnt_flit_size
-gpgpu_mem_addr_mapping dramid@8;00000000.00000000.00000000.00000000.0000RRRR.RRRRRRRR.RBBBCCCB.CCCSSSSS # mapping memory address to dram model {dramid@<start bit>;<memory address map>}
-gpgpu_mem_addr_test                    0 # run sweep test to check address mapping for aliased address
-gpgpu_mem_address_mask                    1 # 0 = old addressing mask, 1 = new addressing mask, 2 = new add. mask + flipped bank sel and chip sel bits
-gpgpu_memory_partition_indexing                    0 # 0 = no indexing, 1 = bitwise xoring, 2 = IPoly, 3 = custom indexing
-gpuwattch_xml_file         gpuwattch.xml # GPUWattch XML file
-power_simulation_enabled                    0 # Turn on power simulator (1=On, 0=Off)
-power_per_cycle_dump                    0 # Dump detailed power output each cycle
-power_trace_enabled                    0 # produce a file for the power trace (1=On, 0=Off)
-power_trace_zlevel                     6 # Compression level of the power trace output log (0=no comp, 9=highest)
-steady_power_levels_enabled                    0 # produce a file for the steady power levels (1=On, 0=Off)
-steady_state_definition                  8:4 # allowed deviation:number of samples
-gpgpu_max_cycle                        0 # terminates gpu simulation early (0 = no limit)
-gpgpu_max_insn                         0 # terminates gpu simulation early (0 = no limit)
-gpgpu_max_cta                          0 # terminates gpu simulation early (0 = no limit)
-gpgpu_max_completed_cta                 2048 # terminates gpu simulation early (0 = no limit)
-gpgpu_runtime_stat                   500 # display runtime statistics such as dram utilization {<freq>:<flag>}
-liveness_message_freq                    1 # Minimum number of seconds between simulation liveness messages (0 = always print)
-gpgpu_compute_capability_major                    7 # Major compute capability version number
-gpgpu_compute_capability_minor                    0 # Minor compute capability version number
-gpgpu_flush_l1_cache                    1 # Flush L1 cache at the end of each kernel call
-gpgpu_flush_l2_cache                    0 # Flush L2 cache at the end of each kernel call
-gpgpu_deadlock_detect                    1 # Stop the simulation at deadlock (1=on (default), 0=off)
-gpgpu_ptx_instruction_classification                    0 # if enabled will classify ptx instruction types per kernel (Max 255 kernels now)
-gpgpu_ptx_sim_mode                     0 # Select between Performance (default) or Functional simulation (1)
-gpgpu_clock_domains 1132.0:1132.0:1132.0:850.0 # Clock Domain Frequencies in MhZ {<Core Clock>:<ICNT Clock>:<L2 Clock>:<DRAM Clock>}
-gpgpu_max_concurrent_kernel                    8 # maximum kernels that can run concurrently on GPU
-gpgpu_cflog_interval                    0 # Interval between each snapshot in control flow logger
-visualizer_enabled               ef36522e2d45247004aa03edb85bd63f  /home/pli11/Videos/parboil_benchmark/parboil/benchmarks/stencil/build/nvm_default/stencil
Extracting PTX file and ptxas options    1: stencil.1.sm_70.ptx -arch=sm_70
      0 # Turn on visualizer output (1=On, 0=Off)
-visualizer_outputfile                 NULL # Specifies the output log file for visualizer
-visualizer_zlevel                      6 # Compression level of the visualizer output log (0=no comp, 9=highest)
-gpgpu_stack_size_limit                 1024 # GPU thread stack size
-gpgpu_heap_size_limit              8388608 # GPU malloc heap size 
-gpgpu_runtime_sync_depth_limit                    2 # GPU device runtime synchronize depth
-gpgpu_runtime_pending_launch_count_limit                 2048 # GPU device runtime pending launch count
-trace_enabled                          0 # Turn on traces
-trace_components                    none # comma seperated list of traces to enable. Complete list found in trace_streams.tup. Default none
-trace_sampling_core                    0 # The core which is printed using CORE_DPRINTF. Default 0
-trace_sampling_memory_partition                   -1 # The memory partition which is printed using MEMPART_DPRINTF. Default -1 (i.e. all)
-enable_ptx_file_line_stats                    1 # Turn on PTX source line statistic profiling. (1 = On)
-ptx_line_stats_filename gpgpu_inst_stats.txt # Output file for PTX source line statistics.
-gpgpu_kernel_launch_latency                 5000 # Kernel launch latency in cycles. Default: 0
-gpgpu_cdp_enabled                      0 # Turn on CDP
-gpgpu_TB_launch_latency                    0 # thread block launch latency in cycles. Default: 0
DRAM Timing Options:
nbk                                    16 # number of banks
CCD                                     1 # column to column delay
RRD                                     3 # minimal delay between activation of rows in different banks
RCD                                    12 # row to column delay
RAS                                    28 # time needed to activate row
RP                                     12 # time needed to precharge (deactivate) row
RC                                     40 # row cycle time
CDLR                                    3 # switching from write to read (changes tWTR)
WR                                     10 # last data-in to row precharge
CL                                     12 # CAS latency
WL                                      2 # Write latency
nbkgrp                                  4 # number of bank groups
CCDL                                    2 # column to column delay between accesses to different bank groups
RTPL                                    3 # read to precharge delay between accesses to different bank groups
Total number of memory sub partition = 64
addr_dec_mask[CHIP]  = 0000000000001f00 	high:13 low:8
addr_dec_mask[BK]    = 00000000000e2000 	high:20 low:13
addr_dec_mask[ROW]   = 00000001fff00000 	high:33 low:20
addr_dec_mask[COL]   = 000000000001c0ff 	high:17 low:0
addr_dec_mask[BURST] = 000000000000001f 	high:5 low:0
sub_partition_id_mask = 0000000000002000
GPGPU-Sim uArch: clock freqs: 1132000000.000000:1132000000.000000:1132000000.000000:850000000.000000
GPGPU-Sim uArch: clock periods: 0.00000000088339222615:0.00000000088339222615:0.00000000088339222615:0.00000000117647058824
*** Initializing Memory Statistics ***
GPGPU-Sim uArch: performance model initialization complete.
self exe links to: /home/pli11/Videos/parboil_benchmark/parboil/benchmarks/stencil/build/nvm_default/stencil
self exe links to: /home/pli11/Videos/parboil_benchmark/parboil/benchmarks/stencil/build/nvm_default/stencil
10.1
GPGPU-Sim PTX: __cudaRegisterFatBinary, fat_cubin_handle = 1, filename=default
self exe links to: /home/pli11/Videos/parboil_benchmark/parboil/benchmarks/stencil/build/nvm_default/stencil
Running md5sum using "md5sum /home/pli11/Videos/parboil_benchmark/parboil/benchmarks/stencil/build/nvm_default/stencil "
self exe links to: /home/pli11/Videos/parboil_benchmark/parboil/benchmarks/stencil/build/nvm_default/stencil
Extracting specific PTX file named stencil.1.sm_70.ptx 
GPGPU-Sim PTX: __cudaRegisterFunction _Z17naive_kernel_nvm5ffPfS_iii : hostFun 0x0x403527, fat_cubin_handle = 1
GPGPU-Sim PTX: Parsing stencil.1.sm_70.ptx
GPGPU-Sim PTX: allocating global region for "NVM_log" from 0x100 to 0x4000100 (global memory space)
GPGPU-Sim PTX: allocating global region for "NVM_flag" from 0x4000100 to 0x4400100 (global memory space)
GPGPU-Sim PTX: instruction assembly for function '_Z12naive_kernelffPfS_iii'...   done.
GPGPU-Sim PTX: instruction assembly for function '_Z17naive_kernel_nvmbffPfS_iii'...   done.
GPGPU-Sim PTX: instruction assembly for function '_Z17naive_kernel_nvmoffPfS_iii'...   done.
GPGPU-Sim PTX: instruction assembly for function '_Z17naive_kernel_nvmuffPfS_iii'...   done.
GPGPU-Sim PTX: instruction assembly for function '_Z17naive_kernel_nvm1ffPfS_iii'...   done.
GPGPU-Sim PTX: instruction assembly for function '_Z17naive_kernel_nvm2ffPfS_iii'...   done.
GPGPU-Sim PTX: instruction assembly for function '_Z17naive_kernel_nvmgffPfS_iii'...   done.
GPGPU-Sim PTX: instruction assembly for function '_Z17naive_kernel_nvm3ffPfS_iii'...   done.
GPGPU-Sim PTX: instruction assembly for function '_Z17naive_kernel_nvm4ffPfS_iii'...   done.
GPGPU-Sim PTX: instruction assembly for function '_Z17naive_kernel_nvmiffPfS_iii'...   done.
GPGPU-Sim PTX: instruction assembly for function '_Z17naive_kernel_nvm6ffPfS_iii'...   done.
GPGPU-Sim PTX: instruction assembly for function '_Z17naive_kernel_nvm5ffPfS_iii'...   done.
GPGPU-Sim PTX: finished parsing EMBEDDED .ptx file stencil.1.sm_70.ptx
GPGPU-Sim PTX: loading globals with explicit initializers... 
GPGPU-Sim PTX: finished loading globals (0 bytes total).
GPGPU-Sim PTX: loading constants with explicit initializers...  done.
GPGPU-Sim PTX: Loading PTXInfo from stencil.1.sm_70.ptx
GPGPU-Sim PTX: Kernel '_Z17naive_kernel_nvm5ffPfS_iii' : regs=21, lmem=0, smem=0, cmem=388
GPGPU-Sim PTX: Kernel '_Z17naive_kernel_nvm6ffPfS_iii' : regs=21, lmem=0, smem=0, cmem=388
GPGPU-Sim PTX: Kernel '_Z17naive_kernel_nvmiffPfS_iii' : regs=21, lmem=0, smem=0, cmem=388
GPGPU-Sim PTX: Kernel '_Z17naive_kernel_nvm4ffPfS_iii' : regs=23, lmem=0, smem=0, cmem=388
GPGPU-Sim PTX: Kernel '_Z17naive_kernel_nvm3ffPfS_iii' : regs=23, lmem=0, smem=0, cmem=388
GPGPU-Sim PTX: Kernel '_Z17naive_kernel_nvmgffPfS_iii' : regs=23, lmem=0, smem=0, cmem=388
GPGPU-Sim PTX: Kernel '_Z17naive_kernel_nvm2ffPfS_iii' : regs=22, lmem=0, smem=0, cmem=388
GPGPU-Sim PTX: Kernel '_Z17naive_kernel_nvm1ffPfS_iii' : regs=22, lmem=0, smem=0, cmem=388
GPGPU-Sim PTX: Kernel '_Z17naive_kernel_nvmuffPfS_iii' : regs=20, lmem=0, smem=0, cmem=388
GPGPU-Sim PTX: Kernel '_Z17naive_kernel_nvmoffPfS_iii' : regs=20, lmem=0, smem=0, cmem=388
GPGPU-Sim PTX: Kernel '_Z17naive_kernel_nvmbffPfS_iii' : regs=20, lmem=0, smem=0, cmem=388
GPGPU-Sim PTX: Kernel '_Z12naive_kernelffPfS_iii' : regs=20, lmem=0, smem=0, cmem=388
GPGPU-Sim PTX: __cudaRegisterFunction _Z17naive_kernel_nvm6ffPfS_iii : hostFun 0x0x40332e, fat_cubin_handle = 1
GPGPU-Sim PTX: __cudaRegisterFunction _Z17naive_kernel_nvmiffPfS_iii : hostFun 0x0x403135, fat_cubin_handle = 1
GPGPU-Sim PTX: __cudaRegisterFunction _Z17naive_kernel_nvm4ffPfS_iii : hostFun 0x0x402f3c, fat_cubin_handle = 1
GPGPU-Sim PTX: __cudaRegisterFunction _Z17naive_kernel_nvm3ffPfS_iii : hostFun 0x0x402d43, fat_cubin_handle = 1
GPGPU-Sim PTX: __cudaRegisterFunction _Z17naive_kernel_nvmgffPfS_iii : hostFun 0x0x402b4a, fat_cubin_handle = 1
GPGPU-Sim PTX: __cudaRegisterFunction _Z17naive_kernel_nvm2ffPfS_iii : hostFun 0x0x402951, fat_cubin_handle = 1
GPGPU-Sim PTX: __cudaRegisterFunction _Z17naive_kernel_nvm1ffPfS_iii : hostFun 0x0x402758, fat_cubin_handle = 1
GPGPU-Sim PTX: __cudaRegisterFunction _Z17naive_kernel_nvmuffPfS_iii : hostFun 0x0x40255f, fat_cubin_handle = 1
GPGPU-Sim PTX: __cudaRegisterFunction _Z17naive_kernel_nvmoffPfS_iii : hostFun 0x0x402366, fat_cubin_handle = 1
GPGPU-Sim PTX: __cudaRegisterFunction _Z17naive_kernel_nvmbffPfS_iii : hostFun 0x0x40216d, fat_cubin_handle = 1
GPGPU-Sim PTX: __cudaRegisterFunction _Z12naive_kernelffPfS_iii : hostFun 0x0x401f74, fat_cubin_handle = 1
GPGPU-Sim PTX: __cudaRegisterVar: hostVar = 0x6091c0; deviceAddress = NVM_log; deviceName = NVM_log
GPGPU-Sim PTX: __cudaRegisterVar: Registering const memory space of 67108864 bytes
GPGPU-Sim PTX registering global NVM_log hostVar to name mapping
GPGPU-Sim PTX: __cudaRegisterVar: hostVar = 0x46091c0; deviceAddress = NVM_flag; deviceName = NVM_flag
GPGPU-Sim PTX: __cudaRegisterVar: Registering const memory space of 4194304 bytes
GPGPU-Sim PTX registering global NVM_flag hostVar to name mapping
CUDA accelerated 7 points stencil codes****
Original version by Li-Wen Chang <lchang20@illinois.edu> and I-Jui Sung<sung10@illinois.edu>
This version maintained by Chris Rodrigues  ***********
GPGPU-Sim: synchronize waiting for inactive GPU simulation
GPGPU-Sim API: Stream Manager State
GPGPU-Sim: detected inactive GPU simulation thread
event update
GPGPU-Sim: synchronize waiting for inactive GPU simulation
GPGPU-Sim API: Stream Manager State
GPGPU-Sim: detected inactive GPU simulation thread
GPGPU-Sim PTX: Setting up arguments for 4 bytes starting at 0x7ffd3c8328cc..
GPGPU-Sim PTX: Setting up arguments for 4 bytes starting at 0x7ffd3c8328c8..
GPGPU-Sim PTX: Setting up arguments for 8 bytes starting at 0x7ffd3c8328c0..
GPGPU-Sim PTX: Setting up arguments for 8 bytes starting at 0x7ffd3c8328b8..
GPGPU-Sim PTX: Setting up arguments for 4 bytes starting at 0x7ffd3c8328b4..
GPGPU-Sim PTX: Setting up arguments for 4 bytes starting at 0x7ffd3c8328b0..
GPGPU-Sim PTX: Setting up arguments for 4 bytes starting at 0x7ffd3c8328ac..

GPGPU-Sim PTX: cudaLaunch for 0x0x403527 (mode=performance simulation) on stream 0
GPGPU-Sim PTX: finding reconvergence points for '_Z17naive_kernel_nvm5ffPfS_iii'...
GPGPU-Sim PTX: Finding dominators for '_Z17naive_kernel_nvm5ffPfS_iii'...
GPGPU-Sim PTX: Finding immediate dominators for '_Z17naive_kernel_nvm5ffPfS_iii'...
GPGPU-Sim PTX: Finding postdominators for '_Z17naive_kernel_nvm5ffPfS_iii'...
GPGPU-Sim PTX: Finding immediate postdominators for '_Z17naive_kernel_nvm5ffPfS_iii'...
GPGPU-Sim PTX: pre-decoding instructions for '_Z17naive_kernel_nvm5ffPfS_iii'...
GPGPU-Sim PTX: reconvergence points for _Z17naive_kernel_nvm5ffPfS_iii...
GPGPU-Sim PTX:  1 (potential) branch divergence @  PC=0x1d00 (stencil.1.sm_70.ptx:1379) @%p2 bra BB11_2;
GPGPU-Sim PTX:    immediate post dominator      @  PC=0x1d78 (stencil.1.sm_70.ptx:1403) setp.lt.s32%p3, %r3, 1;
GPGPU-Sim PTX:  2 (potential) branch divergence @  PC=0x1d80 (stencil.1.sm_70.ptx:1404) @%p3 bra BB11_4;
GPGPU-Sim PTX:    immediate post dominator      @  PC=0x1ef8 (stencil.1.sm_70.ptx:1456) setp.eq.s32%p1, %r4, %r5;
GPGPU-Sim PTX:  3 (potential) branch divergence @  PC=0x1f10 (stencil.1.sm_70.ptx:1461) @!%p1 bra BB11_6;
GPGPU-Sim PTX:    immediate post dominator      @  PC=0x1f90 (stencil.1.sm_70.ptx:1487) ret;
GPGPU-Sim PTX:  4 (potential) branch divergence @  PC=0x1f18 (stencil.1.sm_70.ptx:1462) bra.uni BB11_5;
GPGPU-Sim PTX:    immediate post dominator      @  PC=0x1f20 (stencil.1.sm_70.ptx:1465) mov.u32 %r38, %nctaid.x;
GPGPU-Sim PTX: ... end of reconvergence points for _Z17naive_kernel_nvm5ffPfS_iii
GPGPU-Sim PTX: ... done pre-decoding instructions for '_Z17naive_kernel_nvm5ffPfS_iii'.
GPGPU-Sim PTX: pushing kernel '_Z17naive_kernel_nvm5ffPfS_iii' to stream 0, gridDim= (510,62,1) blockDim = (511,1,1) 
GPGPU-Sim uArch: Shader 0 bind to kernel 1 '_Z17naive_kernel_nvm5ffPfS_iii'
GPGPU-Sim uArch: CTA/core = 4, limited by: threads
GPGPU-Sim: Reconfigure L1 cache to 128KB
GPGPU-Sim uArch: Shader 1 bind to kernel 1 '_Z17naive_kernel_nvm5ffPfS_iii'
GPGPU-Sim uArch: Shader 2 bind to kernel 1 '_Z17naive_kernel_nvm5ffPfS_iii'
GPGPU-Sim uArch: Shader 3 bind to kernel 1 '_Z17naive_kernel_nvm5ffPfS_iii'
GPGPU-Sim uArch: Shader 4 bind to kernel 1 '_Z17naive_kernel_nvm5ffPfS_iii'
GPGPU-Sim uArch: Shader 5 bind to kernel 1 '_Z17naive_kernel_nvm5ffPfS_iii'
GPGPU-Sim uArch: Shader 6 bind to kernel 1 '_Z17naive_kernel_nvm5ffPfS_iii'
GPGPU-Sim uArch: Shader 7 bind to kernel 1 '_Z17naive_kernel_nvm5ffPfS_iii'
GPGPU-Sim uArch: Shader 8 bind to kernel 1 '_Z17naive_kernel_nvm5ffPfS_iii'
GPGPU-Sim uArch: Shader 9 bind to kernel 1 '_Z17naive_kernel_nvm5ffPfS_iii'
GPGPU-Sim uArch: Shader 10 bind to kernel 1 '_Z17naive_kernel_nvm5ffPfS_iii'
GPGPU-Sim uArch: Shader 11 bind to kernel 1 '_Z17naive_kernel_nvm5ffPfS_iii'
GPGPU-Sim uArch: Shader 12 bind to kernel 1 '_Z17naive_kernel_nvm5ffPfS_iii'
GPGPU-Sim uArch: Shader 13 bind to kernel 1 '_Z17naive_kernel_nvm5ffPfS_iii'
GPGPU-Sim uArch: Shader 14 bind to kernel 1 '_Z17naive_kernel_nvm5ffPfS_iii'
GPGPU-Sim uArch: Shader 15 bind to kernel 1 '_Z17naive_kernel_nvm5ffPfS_iii'
GPGPU-Sim uArch: Shader 16 bind to kernel 1 '_Z17naive_kernel_nvm5ffPfS_iii'
GPGPU-Sim uArch: Shader 17 bind to kernel 1 '_Z17naive_kernel_nvm5ffPfS_iii'
GPGPU-Sim uArch: Shader 18 bind to kernel 1 '_Z17naive_kernel_nvm5ffPfS_iii'
GPGPU-Sim uArch: Shader 19 bind to kernel 1 '_Z17naive_kernel_nvm5ffPfS_iii'
GPGPU-Sim uArch: Shader 20 bind to kernel 1 '_Z17naive_kernel_nvm5ffPfS_iii'
GPGPU-Sim uArch: Shader 21 bind to kernel 1 '_Z17naive_kernel_nvm5ffPfS_iii'
GPGPU-Sim uArch: Shader 22 bind to kernel 1 '_Z17naive_kernel_nvm5ffPfS_iii'
GPGPU-Sim uArch: Shader 23 bind to kernel 1 '_Z17naive_kernel_nvm5ffPfS_iii'
GPGPU-Sim uArch: Shader 24 bind to kernel 1 '_Z17naive_kernel_nvm5ffPfS_iii'
GPGPU-Sim uArch: Shader 25 bind to kernel 1 '_Z17naive_kernel_nvm5ffPfS_iii'
GPGPU-Sim uArch: Shader 26 bind to kernel 1 '_Z17naive_kernel_nvm5ffPfS_iii'
GPGPU-Sim uArch: Shader 27 bind to kernel 1 '_Z17naive_kernel_nvm5ffPfS_iii'
GPGPU-Sim uArch: Shader 28 bind to kernel 1 '_Z17naive_kernel_nvm5ffPfS_iii'
GPGPU-Sim uArch: Shader 29 bind to kernel 1 '_Z17naive_kernel_nvm5ffPfS_iii'
GPGPU-Sim uArch: Shader 30 bind to kernel 1 '_Z17naive_kernel_nvm5ffPfS_iii'
GPGPU-Sim uArch: Shader 31 bind to kernel 1 '_Z17naive_kernel_nvm5ffPfS_iii'
GPGPU-Sim uArch: Shader 32 bind to kernel 1 '_Z17naive_kernel_nvm5ffPfS_iii'
GPGPU-Sim uArch: Shader 33 bind to kernel 1 '_Z17naive_kernel_nvm5ffPfS_iii'
GPGPU-Sim uArch: Shader 34 bind to kernel 1 '_Z17naive_kernel_nvm5ffPfS_iii'
GPGPU-Sim uArch: Shader 35 bind to kernel 1 '_Z17naive_kernel_nvm5ffPfS_iii'
GPGPU-Sim uArch: Shader 36 bind to kernel 1 '_Z17naive_kernel_nvm5ffPfS_iii'
GPGPU-Sim uArch: Shader 37 bind to kernel 1 '_Z17naive_kernel_nvm5ffPfS_iii'
GPGPU-Sim uArch: Shader 38 bind to kernel 1 '_Z17naive_kernel_nvm5ffPfS_iii'
GPGPU-Sim uArch: Shader 39 bind to kernel 1 '_Z17naive_kernel_nvm5ffPfS_iii'
GPGPU-Sim uArch: Shader 40 bind to kernel 1 '_Z17naive_kernel_nvm5ffPfS_iii'
GPGPU-Sim uArch: Shader 41 bind to kernel 1 '_Z17naive_kernel_nvm5ffPfS_iii'
GPGPU-Sim uArch: Shader 42 bind to kernel 1 '_Z17naive_kernel_nvm5ffPfS_iii'
GPGPU-Sim uArch: Shader 43 bind to kernel 1 '_Z17naive_kernel_nvm5ffPfS_iii'
GPGPU-Sim uArch: Shader 44 bind to kernel 1 '_Z17naive_kernel_nvm5ffPfS_iii'
GPGPU-Sim uArch: Shader 45 bind to kernel 1 '_Z17naive_kernel_nvm5ffPfS_iii'
GPGPU-Sim uArch: Shader 46 bind to kernel 1 '_Z17naive_kernel_nvm5ffPfS_iii'
GPGPU-Sim uArch: Shader 47 bind to kernel 1 '_Z17naive_kernel_nvm5ffPfS_iii'
GPGPU-Sim uArch: Shader 48 bind to kernel 1 '_Z17naive_kernel_nvm5ffPfS_iii'
GPGPU-Sim uArch: Shader 49 bind to kernel 1 '_Z17naive_kernel_nvm5ffPfS_iii'
GPGPU-Sim uArch: Shader 50 bind to kernel 1 '_Z17naive_kernel_nvm5ffPfS_iii'
GPGPU-Sim uArch: Shader 51 bind to kernel 1 '_Z17naive_kernel_nvm5ffPfS_iii'
GPGPU-Sim uArch: Shader 52 bind to kernel 1 '_Z17naive_kernel_nvm5ffPfS_iii'
GPGPU-Sim uArch: Shader 53 bind to kernel 1 '_Z17naive_kernel_nvm5ffPfS_iii'
GPGPU-Sim uArch: Shader 54 bind to kernel 1 '_Z17naive_kernel_nvm5ffPfS_iii'
GPGPU-Sim uArch: Shader 55 bind to kernel 1 '_Z17naive_kernel_nvm5ffPfS_iii'
GPGPU-Sim uArch: Shader 56 bind to kernel 1 '_Z17naive_kernel_nvm5ffPfS_iii'
GPGPU-Sim uArch: Shader 57 bind to kernel 1 '_Z17naive_kernel_nvm5ffPfS_iii'
GPGPU-Sim uArch: Shader 58 bind to kernel 1 '_Z17naive_kernel_nvm5ffPfS_iii'
GPGPU-Sim uArch: Shader 59 bind to kernel 1 '_Z17naive_kernel_nvm5ffPfS_iii'
GPGPU-Sim uArch: Shader 60 bind to kernel 1 '_Z17naive_kernel_nvm5ffPfS_iii'
GPGPU-Sim uArch: Shader 61 bind to kernel 1 '_Z17naive_kernel_nvm5ffPfS_iii'
GPGPU-Sim uArch: Shader 62 bind to kernel 1 '_Z17naive_kernel_nvm5ffPfS_iii'
GPGPU-Sim uArch: Shader 63 bind to kernel 1 '_Z17naive_kernel_nvm5ffPfS_iii'
GPGPU-Sim uArch: Shader 64 bind to kernel 1 '_Z17naive_kernel_nvm5ffPfS_iii'
GPGPU-Sim uArch: Shader 65 bind to kernel 1 '_Z17naive_kernel_nvm5ffPfS_iii'
GPGPU-Sim uArch: Shader 66 bind to kernel 1 '_Z17naive_kernel_nvm5ffPfS_iii'
GPGPU-Sim uArch: Shader 67 bind to kernel 1 '_Z17naive_kernel_nvm5ffPfS_iii'
GPGPU-Sim uArch: Shader 68 bind to kernel 1 '_Z17naive_kernel_nvm5ffPfS_iii'
GPGPU-Sim uArch: Shader 69 bind to kernel 1 '_Z17naive_kernel_nvm5ffPfS_iii'
GPGPU-Sim uArch: Shader 70 bind to kernel 1 '_Z17naive_kernel_nvm5ffPfS_iii'
GPGPU-Sim uArch: Shader 71 bind to kernel 1 '_Z17naive_kernel_nvm5ffPfS_iii'
GPGPU-Sim uArch: Shader 72 bind to kernel 1 '_Z17naive_kernel_nvm5ffPfS_iii'
GPGPU-Sim uArch: Shader 73 bind to kernel 1 '_Z17naive_kernel_nvm5ffPfS_iii'
GPGPU-Sim uArch: Shader 74 bind to kernel 1 '_Z17naive_kernel_nvm5ffPfS_iii'
GPGPU-Sim uArch: Shader 75 bind to kernel 1 '_Z17naive_kernel_nvm5ffPfS_iii'
GPGPU-Sim uArch: Shader 76 bind to kernel 1 '_Z17naive_kernel_nvm5ffPfS_iii'
GPGPU-Sim uArch: Shader 77 bind to kernel 1 '_Z17naive_kernel_nvm5ffPfS_iii'
GPGPU-Sim uArch: Shader 78 bind to kernel 1 '_Z17naive_kernel_nvm5ffPfS_iii'
GPGPU-Sim uArch: Shader 79 bind to kernel 1 '_Z17naive_kernel_nvm5ffPfS_iii'
kernel_name = _Z17naive_kernel_nvm5ffPfS_iii 
kernel_launch_uid = 1 
gpu_sim_cycle = 39719
gpu_sim_insn = 84190755
gpu_ipc =    2119.6594
gpu_tot_sim_cycle = 39719
gpu_tot_sim_insn = 84190755
gpu_tot_ipc =    2119.6594
gpu_tot_issued_cta = 2368
gpu_occupancy = 93.7750% 
gpu_tot_occupancy = 93.7750% 
max_total_param_size = 0
gpu_stall_dramfull = 86964
gpu_stall_icnt2sh    = 0
partiton_level_parallism =      28.9689
partiton_level_parallism_total  =      28.9689
partiton_level_parallism_util =      33.6575
partiton_level_parallism_util_total  =      33.6575
L2_BW  =    1042.2670 GB/Sec
L2_BW_total  =    1042.2670 GB/Sec
gpu_total_sim_rate=165404
############## bottleneck_stats #############
cycles: core 39719, icnt 39719, l2 39719, dram 29824
gpu_ipc	2119.659
gpu_tot_issued_cta = 2368, average cycles = 17
n_dram_writes	 0, n_dram_reads	 0
n_GLOBAL_ACC_R	 212127 
n_LOCAL_ACC_R	 0 
n_CONST_ACC_R	 0 
n_TEXTURE_ACC_R	 0 
n_GLOBAL_ACC_W	 0 
n_LOCAL_ACC_W	 0 
n_L1_WRBK_ACC	 0 
n_L2_WRBK_ACC	 48524 
n_L1_WR_ALLOC_R	 0 
n_L2_WR_ALLOC_R	 0 

n_sm	 80, n_schedulers	 4
scheduler util	0.216	80
L1D data util	1.325	80	1.448	57
L1D tag util	0.388	80	0.418	57
L2 data util	0.621	64	0.639	32
L2 tag util	0.457	64	0.479	17
n_l2_access	 1161554
icnt s2m util	0.000	0	0.000	17	flits per packet: -nan
icnt m2s util	0.000	0	0.000	17	flits per packet: -nan
sum=0
n_mem	 32
dram util	0.367	32	0.381	21

latency_l1_hit:	3388860, num_l1_reqs:	169443
L1 hit latency:	20
latency_l2_hit:	243179112, num_l2_reqs:	676821
L2 hit latency:	359
latency_dram:	299667407, num_dram_reqs:	465839
DRAM latency:	643

n_reg	65536, n_smem	98304, n_thread	2048, n_tb	32
reg file	0.750
smem size	0.000
thread slot	1.000
TB slot    	0.125
L1I tag util	0.459	80	0.495	57

n_mem_pipe	1, n_sp_pipe	4, n_sfu_pipe	4
mem pipe util	0.189	80	0.204	57
sp pipe util	0.045	80	0.048	57
sfu pipe util	0.000	0	0.000	57
ldst mem cycle	0.046	80	0.048	57

smem port	0.000	0

n_reg_bank	16
reg port	0.121	16	0.148	2
L1D tag util	0.388	80	0.418	57
L1D fill util	0.270	80	0.296	57
n_l1d_mshr	4096
L1D mshr util	0.033	80
n_l1d_missq	16
L1D missq util	0.020	80
L1D hit rate	0.138
L1D miss rate	0.862
L1D rsfail rate	0.000
L2 tag util	0.457	64	0.479	17
L2 fill util	0.083	64	0.084	3
n_l2_mshr	192
n_l2_missq	32
L2 mshr util	0.236	64	0.278	9
L2 missq util	0.003	64	0.004	20
L2 hit rate	0.583
L2 miss rate	0.402
L2 rsfail rate	0.015

dram activity	0.583	32	0.611	9

load trans eff	0.934
load trans sz	32.000
load_useful_bytes 32544364, load_transaction_bytes 34833248, icnt_m2s_bytes 0
n_gmem_load_insns 255245, n_gmem_load_accesses 1088539
n_smem_access_insn 0, n_smem_accesses 0

tmp_counter/12	0.470

run 0.021, fetch 0.002, sync 0.214, control 0.001, data 0.745, struct 0.018
############ end_bottleneck_stats #############

========= Core cache stats =========
L1I_cache:
	L1I_total_cache_accesses = 0
	L1I_total_cache_misses = 0
	L1I_total_cache_pending_hits = 0
	L1I_total_cache_reservation_fails = 0
L1D_cache:
	L1D_cache_core[0]: Access = 15319, Miss = 13266, Miss_rate = 0.866, Pending_hits = 0, Reservation_fails = 0
	L1D_cache_core[1]: Access = 15452, Miss = 13229, Miss_rate = 0.856, Pending_hits = 0, Reservation_fails = 0
	L1D_cache_core[2]: Access = 15506, Miss = 13407, Miss_rate = 0.865, Pending_hits = 0, Reservation_fails = 0
	L1D_cache_core[3]: Access = 15339, Miss = 13176, Miss_rate = 0.859, Pending_hits = 0, Reservation_fails = 0
	L1D_cache_core[4]: Access = 15360, Miss = 13305, Miss_rate = 0.866, Pending_hits = 0, Reservation_fails = 0
	L1D_cache_core[5]: Access = 15930, Miss = 14009, Miss_rate = 0.879, Pending_hits = 0, Reservation_fails = 0
	L1D_cache_core[6]: Access = 15162, Miss = 12841, Miss_rate = 0.847, Pending_hits = 0, Reservation_fails = 0
	L1D_cache_core[7]: Access = 15107, Miss = 12924, Miss_rate = 0.855, Pending_hits = 0, Reservation_fails = 0
	L1D_cache_core[8]: Access = 15193, Miss = 12984, Miss_rate = 0.855, Pending_hits = 0, Reservation_fails = 0
	L1D_cache_core[9]: Access = 15582, Miss = 13550, Miss_rate = 0.870, Pending_hits = 0, Reservation_fails = 0
	L1D_cache_core[10]: Access = 15875, Miss = 13966, Miss_rate = 0.880, Pending_hits = 0, Reservation_fails = 0
	L1D_cache_core[11]: Access = 15104, Miss = 12926, Miss_rate = 0.856, Pending_hits = 0, Reservation_fails = 0
	L1D_cache_core[12]: Access = 15240, Miss = 13075, Miss_rate = 0.858, Pending_hits = 0, Reservation_fails = 0
	L1D_cache_core[13]: Access = 15997, Miss = 13886, Miss_rate = 0.868, Pending_hits = 0, Reservation_fails = 0
	L1D_cache_core[14]: Access = 14931, Miss = 12757, Miss_rate = 0.854, Pending_hits = 0, Reservation_fails = 0
	L1D_cache_core[15]: Access = 14764, Miss = 12646, Miss_rate = 0.857, Pending_hits = 0, Reservation_fails = 0
	L1D_cache_core[16]: Access = 15676, Miss = 13552, Miss_rate = 0.865, Pending_hits = 0, Reservation_fails = 0
	L1D_cache_core[17]: Access = 15951, Miss = 13861, Miss_rate = 0.869, Pending_hits = 0, Reservation_fails = 0
	L1D_cache_core[18]: Access = 15644, Miss = 13612, Miss_rate = 0.870, Pending_hits = 0, Reservation_fails = 0
	L1D_cache_core[19]: Access = 14954, Miss = 12807, Miss_rate = 0.856, Pending_hits = 0, Reservation_fails = 0
	L1D_cache_core[20]: Access = 15214, Miss = 13040, Miss_rate = 0.857, Pending_hits = 0, Reservation_fails = 0
	L1D_cache_core[21]: Access = 16432, Miss = 14458, Miss_rate = 0.880, Pending_hits = 0, Reservation_fails = 0
	L1D_cache_core[22]: Access = 15104, Miss = 12903, Miss_rate = 0.854, Pending_hits = 0, Reservation_fails = 0
	L1D_cache_core[23]: Access = 14957, Miss = 12855, Miss_rate = 0.859, Pending_hits = 0, Reservation_fails = 0
	L1D_cache_core[24]: Access = 15330, Miss = 13162, Miss_rate = 0.859, Pending_hits = 0, Reservation_fails = 0
	L1D_cache_core[25]: Access = 16312, Miss = 14301, Miss_rate = 0.877, Pending_hits = 0, Reservation_fails = 0
	L1D_cache_core[26]: Access = 15351, Miss = 13293, Miss_rate = 0.866, Pending_hits = 0, Reservation_fails = 0
	L1D_cache_core[27]: Access = 14816, Miss = 12879, Miss_rate = 0.869, Pending_hits = 0, Reservation_fails = 0
	L1D_cache_core[28]: Access = 15322, Miss = 12980, Miss_rate = 0.847, Pending_hits = 0, Reservation_fails = 0
	L1D_cache_core[29]: Access = 15937, Miss = 13978, Miss_rate = 0.877, Pending_hits = 0, Reservation_fails = 0
	L1D_cache_core[30]: Access = 15073, Miss = 12793, Miss_rate = 0.849, Pending_hits = 0, Reservation_fails = 0
	L1D_cache_core[31]: Access = 15319, Miss = 13229, Miss_rate = 0.864, Pending_hits = 0, Reservation_fails = 0
	L1D_cache_core[32]: Access = 15415, Miss = 13417, Miss_rate = 0.870, Pending_hits = 0, Reservation_fails = 0
	L1D_cache_core[33]: Access = 15562, Miss = 13413, Miss_rate = 0.862, Pending_hits = 0, Reservation_fails = 0
	L1D_cache_core[34]: Access = 15355, Miss = 13408, Miss_rate = 0.873, Pending_hits = 0, Reservation_fails = 0
	L1D_cache_core[35]: Access = 15021, Miss = 12814, Miss_rate = 0.853, Pending_hits = 0, Reservation_fails = 0
	L1D_cache_core[36]: Access = 15350, Miss = 13156, Miss_rate = 0.857, Pending_hits = 0, Reservation_fails = 0
	L1D_cache_core[37]: Access = 15560, Miss = 13660, Miss_rate = 0.878, Pending_hits = 0, Reservation_fails = 0
	L1D_cache_core[38]: Access = 15348, Miss = 13006, Miss_rate = 0.847, Pending_hits = 0, Reservation_fails = 0
	L1D_cache_core[39]: Access = 15196, Miss = 12948, Miss_rate = 0.852, Pending_hits = 0, Reservation_fails = 0
	L1D_cache_core[40]: Access = 15182, Miss = 13210, Miss_rate = 0.870, Pending_hits = 0, Reservation_fails = 0
	L1D_cache_core[41]: Access = 15870, Miss = 13806, Miss_rate = 0.870, Pending_hits = 0, Reservation_fails = 0
	L1D_cache_core[42]: Access = 15103, Miss = 12853, Miss_rate = 0.851, Pending_hits = 0, Reservation_fails = 0
	L1D_cache_core[43]: Access = 15889, Miss = 13793, Miss_rate = 0.868, Pending_hits = 0, Reservation_fails = 0
	L1D_cache_core[44]: Access = 15339, Miss = 13108, Miss_rate = 0.855, Pending_hits = 0, Reservation_fails = 0
	L1D_cache_core[45]: Access = 15611, Miss = 13469, Miss_rate = 0.863, Pending_hits = 0, Reservation_fails = 0
	L1D_cache_core[46]: Access = 15197, Miss = 13108, Miss_rate = 0.863, Pending_hits = 0, Reservation_fails = 0
	L1D_cache_core[47]: Access = 14747, Miss = 12631, Miss_rate = 0.857, Pending_hits = 0, Reservation_fails = 0
	L1D_cache_core[48]: Access = 15123, Miss = 12970, Miss_rate = 0.858, Pending_hits = 0, Reservation_fails = 0
	L1D_cache_core[49]: Access = 16224, Miss = 14148, Miss_rate = 0.872, Pending_hits = 0, Reservation_fails = 0
	L1D_cache_core[50]: Access = 15186, Miss = 12911, Miss_rate = 0.850, Pending_hits = 0, Reservation_fails = 0
	L1D_cache_core[51]: Access = 15282, Miss = 13077, Miss_rate = 0.856, Pending_hits = 0, Reservation_fails = 0
	L1D_cache_core[52]: Access = 15129, Miss = 13042, Miss_rate = 0.862, Pending_hits = 0, Reservation_fails = 0
	L1D_cache_core[53]: Access = 15552, Miss = 13445, Miss_rate = 0.865, Pending_hits = 0, Reservation_fails = 0
	L1D_cache_core[54]: Access = 15206, Miss = 12950, Miss_rate = 0.852, Pending_hits = 0, Reservation_fails = 0
	L1D_cache_core[55]: Access = 15094, Miss = 13044, Miss_rate = 0.864, Pending_hits = 0, Reservation_fails = 0
	L1D_cache_core[56]: Access = 15351, Miss = 13233, Miss_rate = 0.862, Pending_hits = 0, Reservation_fails = 0
	L1D_cache_core[57]: Access = 16600, Miss = 14545, Miss_rate = 0.876, Pending_hits = 0, Reservation_fails = 0
	L1D_cache_core[58]: Access = 15319, Miss = 13157, Miss_rate = 0.859, Pending_hits = 0, Reservation_fails = 0
	L1D_cache_core[59]: Access = 15101, Miss = 12958, Miss_rate = 0.858, Pending_hits = 0, Reservation_fails = 0
	L1D_cache_core[60]: Access = 15009, Miss = 12863, Miss_rate = 0.857, Pending_hits = 0, Reservation_fails = 0
	L1D_cache_core[61]: Access = 16037, Miss = 13879, Miss_rate = 0.865, Pending_hits = 0, Reservation_fails = 0
	L1D_cache_core[62]: Access = 15284, Miss = 13148, Miss_rate = 0.860, Pending_hits = 0, Reservation_fails = 0
	L1D_cache_core[63]: Access = 14527, Miss = 12564, Miss_rate = 0.865, Pending_hits = 0, Reservation_fails = 0
	L1D_cache_core[64]: Access = 15260, Miss = 13086, Miss_rate = 0.858, Pending_hits = 0, Reservation_fails = 0
	L1D_cache_core[65]: Access = 15961, Miss = 13897, Miss_rate = 0.871, Pending_hits = 0, Reservation_fails = 0
	L1D_cache_core[66]: Access = 14994, Miss = 12899, Miss_rate = 0.860, Pending_hits = 0, Reservation_fails = 0
	L1D_cache_core[67]: Access = 15176, Miss = 13046, Miss_rate = 0.860, Pending_hits = 0, Reservation_fails = 0
	L1D_cache_core[68]: Access = 15361, Miss = 13209, Miss_rate = 0.860, Pending_hits = 0, Reservation_fails = 0
	L1D_cache_core[69]: Access = 16184, Miss = 14155, Miss_rate = 0.875, Pending_hits = 0, Reservation_fails = 0
	L1D_cache_core[70]: Access = 15794, Miss = 13855, Miss_rate = 0.877, Pending_hits = 0, Reservation_fails = 0
	L1D_cache_core[71]: Access = 15153, Miss = 12873, Miss_rate = 0.850, Pending_hits = 0, Reservation_fails = 0
	L1D_cache_core[72]: Access = 15155, Miss = 13100, Miss_rate = 0.864, Pending_hits = 0, Reservation_fails = 0
	L1D_cache_core[73]: Access = 15999, Miss = 13975, Miss_rate = 0.873, Pending_hits = 0, Reservation_fails = 0
	L1D_cache_core[74]: Access = 15339, Miss = 12882, Miss_rate = 0.840, Pending_hits = 0, Reservation_fails = 0
	L1D_cache_core[75]: Access = 15335, Miss = 13317, Miss_rate = 0.868, Pending_hits = 0, Reservation_fails = 0
	L1D_cache_core[76]: Access = 15534, Miss = 13428, Miss_rate = 0.864, Pending_hits = 0, Reservation_fails = 0
	L1D_cache_core[77]: Access = 15110, Miss = 12968, Miss_rate = 0.858, Pending_hits = 0, Reservation_fails = 0
	L1D_cache_core[78]: Access = 15866, Miss = 13929, Miss_rate = 0.878, Pending_hits = 0, Reservation_fails = 0
	L1D_cache_core[79]: Access = 15006, Miss = 12803, Miss_rate = 0.853, Pending_hits = 0, Reservation_fails = 0
	L1D_total_cache_accesses = 1232249
	L1D_total_cache_misses = 1062806
	L1D_total_cache_miss_rate = 0.8625
	L1D_total_cache_pending_hits = 0
	L1D_total_cache_reservation_fails = 0
	L1D_cache_data_port_util = 0.061
	L1D_cache_fill_port_util = 0.309
L1C_cache:
	L1C_total_cache_accesses = 0
	L1C_total_cache_misses = 0
	L1C_total_cache_pending_hits = 0
	L1C_total_cache_reservation_fails = 0
L1T_cache:
	L1T_total_cache_accesses = 0
	L1T_total_cache_misses = 0
	L1T_total_cache_pending_hits = 0
	L1T_total_cache_reservation_fails = 0

Total_core_cache_stats:
	Total_core_cache_stats_breakdown[GLOBAL_ACC_R][HIT] = 169443
	Total_core_cache_stats_breakdown[GLOBAL_ACC_R][HIT_RESERVED] = 0
	Total_core_cache_stats_breakdown[GLOBAL_ACC_R][MISS] = 791915
	Total_core_cache_stats_breakdown[GLOBAL_ACC_R][RESERVATION_FAIL] = 0
	Total_core_cache_stats_breakdown[GLOBAL_ACC_R][SECTOR_MISS] = 126029
	Total_core_cache_stats_breakdown[LOCAL_ACC_R][HIT] = 0
	Total_core_cache_stats_breakdown[LOCAL_ACC_R][HIT_RESERVED] = 0
	Total_core_cache_stats_breakdown[LOCAL_ACC_R][MISS] = 0
	Total_core_cache_stats_breakdown[LOCAL_ACC_R][RESERVATION_FAIL] = 0
	Total_core_cache_stats_breakdown[LOCAL_ACC_R][SECTOR_MISS] = 0
	Total_core_cache_stats_breakdown[CONST_ACC_R][HIT] = 0
	Total_core_cache_stats_breakdown[CONST_ACC_R][HIT_RESERVED] = 0
	Total_core_cache_stats_breakdown[CONST_ACC_R][MISS] = 0
	Total_core_cache_stats_breakdown[CONST_ACC_R][RESERVATION_FAIL] = 0
	Total_core_cache_stats_breakdown[CONST_ACC_R][SECTOR_MISS] = 0
	Total_core_cache_stats_breakdown[TEXTURE_ACC_R][HIT] = 0
	Total_core_cache_stats_breakdown[TEXTURE_ACC_R][HIT_RESERVED] = 0
	Total_core_cache_stats_breakdown[TEXTURE_ACC_R][MISS] = 0
	Total_core_cache_stats_breakdown[TEXTURE_ACC_R][RESERVATION_FAIL] = 0
	Total_core_cache_stats_breakdown[TEXTURE_ACC_R][SECTOR_MISS] = 0
	Total_core_cache_stats_breakdown[GLOBAL_ACC_W][HIT] = 0
	Total_core_cache_stats_breakdown[GLOBAL_ACC_W][HIT_RESERVED] = 0
	Total_core_cache_stats_breakdown[GLOBAL_ACC_W][MISS] = 144862
	Total_core_cache_stats_breakdown[GLOBAL_ACC_W][RESERVATION_FAIL] = 0
	Total_core_cache_stats_breakdown[GLOBAL_ACC_W][SECTOR_MISS] = 0
	Total_core_cache_stats_breakdown[LOCAL_ACC_W][HIT] = 0
	Total_core_cache_stats_breakdown[LOCAL_ACC_W][HIT_RESERVED] = 0
	Total_core_cache_stats_breakdown[LOCAL_ACC_W][MISS] = 0
	Total_core_cache_stats_breakdown[LOCAL_ACC_W][RESERVATION_FAIL] = 0
	Total_core_cache_stats_breakdown[LOCAL_ACC_W][SECTOR_MISS] = 0
	Total_core_cache_stats_breakdown[L1_WRBK_ACC][HIT] = 0
	Total_core_cache_stats_breakdown[L1_WRBK_ACC][HIT_RESERVED] = 0
	Total_core_cache_stats_breakdown[L1_WRBK_ACC][MISS] = 0
	Total_core_cache_stats_breakdown[L1_WRBK_ACC][RESERVATION_FAIL] = 0
	Total_core_cache_stats_breakdown[L1_WRBK_ACC][SECTOR_MISS] = 0
	Total_core_cache_stats_breakdown[L2_WRBK_ACC][HIT] = 0
	Total_core_cache_stats_breakdown[L2_WRBK_ACC][HIT_RESERVED] = 0
	Total_core_cache_stats_breakdown[L2_WRBK_ACC][MISS] = 0
	Total_core_cache_stats_breakdown[L2_WRBK_ACC][RESERVATION_FAIL] = 0
	Total_core_cache_stats_breakdown[L2_WRBK_ACC][SECTOR_MISS] = 0
	Total_core_cache_stats_breakdown[INST_ACC_R][HIT] = 0
	Total_core_cache_stats_breakdown[INST_ACC_R][HIT_RESERVED] = 0
	Total_core_cache_stats_breakdown[INST_ACC_R][MISS] = 0
	Total_core_cache_stats_breakdown[INST_ACC_R][RESERVATION_FAIL] = 0
	Total_core_cache_stats_breakdown[INST_ACC_R][SECTOR_MISS] = 0
	Total_core_cache_stats_breakdown[L1_WR_ALLOC_R][HIT] = 0
	Total_core_cache_stats_breakdown[L1_WR_ALLOC_R][HIT_RESERVED] = 0
	Total_core_cache_stats_breakdown[L1_WR_ALLOC_R][MISS] = 0
	Total_core_cache_stats_breakdown[L1_WR_ALLOC_R][RESERVATION_FAIL] = 0
	Total_core_cache_stats_breakdown[L1_WR_ALLOC_R][SECTOR_MISS] = 0
	Total_core_cache_stats_breakdown[L2_WR_ALLOC_R][HIT] = 0
	Total_core_cache_stats_breakdown[L2_WR_ALLOC_R][HIT_RESERVED] = 0
	Total_core_cache_stats_breakdown[L2_WR_ALLOC_R][MISS] = 0
	Total_core_cache_stats_breakdown[L2_WR_ALLOC_R][RESERVATION_FAIL] = 0
	Total_core_cache_stats_breakdown[L2_WR_ALLOC_R][SECTOR_MISS] = 0
	Total_core_cache_stats_breakdown[GLOBAL_ACC_R][TOTAL_ACCESS] = 1087387
	Total_core_cache_stats_breakdown[GLOBAL_ACC_W][TOTAL_ACCESS] = 144862

Total_core_cache_fail_stats:
Shader 0 warp_id issue ditsribution:
warp_id:
0, 1, 2, 3, 4, 5, 6, 7, 8, 9, 10, 11, 12, 13, 14, 15, 16, 17, 18, 19, 20, 21, 22, 23, 24, 25, 26, 27, 28, 29, 30, 31, 32, 33, 34, 35, 36, 37, 38, 39, 40, 41, 42, 43, 44, 45, 46, 47, 48, 49, 50, 51, 52, 53, 54, 55, 56, 57, 58, 59, 60, 61, 62, 63, 
distro:
764, 547, 547, 547, 547, 547, 547, 547, 547, 547, 547, 547, 547, 547, 547, 547, 713, 511, 511, 511, 511, 511, 511, 511, 511, 511, 511, 511, 511, 511, 511, 511, 687, 509, 509, 509, 509, 509, 509, 509, 508, 509, 509, 509, 508, 509, 509, 508, 687, 508, 508, 499, 508, 508, 508, 508, 499, 499, 508, 499, 499, 499, 499, 499, 
gpgpu_n_tot_thrd_icount = 87654528
gpgpu_n_tot_w_icount = 2739204
gpgpu_n_stall_shd_mem = 1043524
gpgpu_n_mem_read_local = 0
gpgpu_n_mem_write_local = 0
gpgpu_n_mem_read_global = 865521
gpgpu_n_mem_write_global = 289683
gpgpu_n_mem_texture = 0
gpgpu_n_mem_const = 0
gpgpu_n_load_insn  = 8131341
gpgpu_n_store_insn = 2248125
gpgpu_n_shmem_insn = 0
gpgpu_n_sstarr_insn = 0
gpgpu_n_tex_insn = 0
gpgpu_n_const_mem_insn = 0
gpgpu_n_param_mem_insn = 7240093
gpgpu_n_shmem_bkconflict = 0
gpgpu_n_cache_bkconflict = 0
gpgpu_n_intrawarp_mshr_merge = 0
gpgpu_n_cmem_portconflict = 0
gpgpu_stall_shd_mem[c_mem][resource_stall] = 0
gpgpu_stall_shd_mem[s_mem][bk_conf] = 0
gpgpu_stall_shd_mem[gl_mem][resource_stall] = 938225
gpgpu_stall_shd_mem[gl_mem][coal_stall] = 105299
gpgpu_stall_shd_mem[gl_mem][data_port_stall] = 0
gpu_reg_bank_conflict_stalls = 0
Warp Occupancy Distribution:
Stall:1440008	W0_Idle:123531	W0_Scoreboard:6803756	W1:64271	W2:0	W3:0	W4:0	W5:0	W6:0	W7:0	W8:0	W9:0	W10:0	W11:0	W12:0	W13:0	W14:0	W15:0	W16:0	W17:0	W18:0	W19:0	W20:0	W21:0	W22:0	W23:0	W24:0	W25:0	W26:0	W27:0	W28:0	W29:0	W30:0	W31:271080	W32:2407114
single_issue_nums: WS0:732302	WS1:669853	WS2:670082	WS3:670228	
dual_issue_nums: WS0:0	WS1:0	WS2:0	WS3:0	
traffic_breakdown_coretomem[GLOBAL_ACC_R] = 6924168 {8:865521,}
traffic_breakdown_coretomem[GLOBAL_ACC_W] = 6952824 {8:144828,40:144855,}
traffic_breakdown_memtocore[GLOBAL_ACC_R] = 34294480 {40:857362,}
traffic_breakdown_memtocore[GLOBAL_ACC_W] = 2282848 {8:285356,}
maxmflatency = 3522 
max_icnt2mem_latency = 2262 
maxmrqlatency = 1773 
max_icnt2sh_latency = 344 
averagemflatency = 474 
avg_icnt2mem_latency = 186 
avg_mrq_latency = 55 
avg_icnt2sh_latency = 14 
mrq_lat_table:32277 	24742 	17877 	23203 	34649 	49542 	45597 	26082 	5721 	773 	68 	0 	0 	0 	0 	0 	0 	0 	0 	0 	0 	0 	0 	0 	0 	0 	0 	0 	0 	0 	0 	0 	
dq_lat_table:0 	0 	0 	0 	0 	0 	0 	0 	0 	0 	0 	0 	0 	0 	0 	0 	0 	0 	0 	0 	0 	0 	0 	0 	0 	0 	0 	0 	0 	0 	0 	0 	
mf_lat_table:0 	0 	0 	0 	0 	0 	0 	224049 	631072 	203224 	80053 	4288 	0 	0 	0 	0 	0 	0 	0 	0 	0 	0 	0 	0 	0 	0 	0 	0 	0 	0 	0 	0 	
icnt2mem_lat_table:0 	5263 	3999 	4780 	92418 	142177 	236360 	392967 	233643 	35041 	3963 	4 	0 	0 	0 	0 	0 	0 	0 	0 	0 	0 	0 	0 	
icnt2sh_lat_table:0 	581561 	192922 	132936 	103470 	73236 	40871 	17107 	583 	0 	0 	0 	0 	0 	0 	0 	0 	0 	0 	0 	0 	0 	0 	0 	
mf_lat_pw_table:0 	0 	0 	0 	0 	0 	0 	1 	54 	10 	3 	0 	0 	0 	0 	0 	0 	0 	0 	0 	0 	0 	0 	0 	0 	0 	0 	0 	0 	0 	0 	0 	
maximum concurrent accesses to same row:
dram[0]:        64        64        64        64        64        64        64        64        64        64        64        64        64        64        64        64 
dram[1]:        64        64        64        64        64        64        64        64        64        64        64        64        64        64        64        64 
dram[2]:        64        64        64        64        64        64        64        64        64        64        64        64        64        64        64        64 
dram[3]:        64        64        64        64        64        64        64        64        64        64        64        64        64        64        64        64 
dram[4]:        64        64        64        64        64        64        64        64        64        64        64        64        64        64        64        64 
dram[5]:        56        64        64        64        64        64        64        64        64        64        64        64        64        64        64        64 
dram[6]:        64        64        64        64        64        64        64        64        64        64        64        64        64        64        64        64 
dram[7]:        64        64        64        64        64        64        64        64        64        64        64        64        64        64        64        64 
dram[8]:        64        64        64        64        64        64        64        64        64        64        64        64        64        64        64        64 
dram[9]:        64        64        64        64        64        64        64        64        64        64        64        64        64        64        64        64 
dram[10]:        64        64        64        64        64        64        64        64        64        64        64        64        64        64        64        64 
dram[11]:       102        64        64        64        64        64        64        64        64        64        64        64        64        64        64        64 
dram[12]:        98        64        64        64        64        64        64        64        64        64        64        64        64        64        64        64 
dram[13]:        64        64        64        64        64        64        64        64        64        64        64        64        64        64        64        64 
dram[14]:        64        64        64        64        64        64        64        64        64        64        64        64        64        64        64        64 
dram[15]:        64        64        64        64        64        64        64        64        64        64        64        64        64        64        64        64 
dram[16]:        64        64        64        64        64        64        64        64        64        64        64        64        64        64        64        64 
dram[17]:        64        64        64        64        64        64        64        64        64        64        64        64        64        64        64        64 
dram[18]:        64        64        64        64        64        64        64        64        64        64        64        64        64        64        64        64 
dram[19]:        64        64        64        64        64        64        64        64        64        64        64        64        64        64        64        64 
dram[20]:        64        64        64        64        64        64        64        64        64        64        64        64        64        64        64        64 
dram[21]:        64        64        64        64        64        64        64        64        64        64        64        64        64        64        64        64 
dram[22]:        64        64        64        64        64        64        64        64        64        64        64        64        64        64        64        64 
dram[23]:        64        64        64        64        64        64        64        64        64        64        64        64        64        64        64        64 
dram[24]:        64        64        64        64        64        64        64        64        64        64        64        64        64        64        64        56 
dram[25]:        64        64        64        64        64        64        64        64        64        64        64        64        64        64        64        64 
dram[26]:        64        64        64        64        64        64        64        64        64        64        64        64        64        64        64        64 
dram[27]:        64        64        64        64        64        64        64        64        64        64        64        64        64        64        64        64 
dram[28]:        64        64        64        64        64        64        64        64        64        64        64        64        64        64        64        64 
dram[29]:        64        64        64        64        64        64        64        64        64        64        64        64        64        64        64        64 
dram[30]:        64        64        64        64        64        64        64        64        64        64        64        64        64        64        64        64 
dram[31]:        64        64        64        64        64        64        64        64        64        64        64        64        64        64        64        64 
maximum service time to same row:
dram[0]:      5972      6084      5990      5976      6333      6497      9017      7184      7286      8974      7095     11066     11957     12006     12346     12387 
dram[1]:      7235      6020      6039      6048      6497      6498      6860      6926      7347      7348      7349     11480     12369     12483     12824     13200 
dram[2]:      6000      6270      6063      6215      6878      6912      9075      7394      8610      8659      7841     11516     12379     12535     12813     13021 
dram[3]:      6048      6033      6254      6088      6931      6946      8506      7753      8180      8446      8118     11539     12467     12419     13162     13206 
dram[4]:      6040      6025      6434      6064      6513      7028      7207      8028      8313      8460      8345     11147     12431     12459     13026     13294 
dram[5]:      6144      6159      6191      6237      6583      7085      6822      7847      8173      7882      7771     11239     12354     12451     13064     13214 
dram[6]:      6165      6180      6258      8879      6642      6798      9386      7232      7502      9047      7428     11673     12552     12479     12891     13077 
dram[7]:      6157      6172      8933      8756      6575      6771      6982      7175      9457      9324      7432     11282     12547     12507     13258     13300 
dram[8]:      5972      5973      5977      8460      6488      6497      6908      7146      9179      9211      8300     11462     11965     11946     12771     12785 
dram[9]:      6040      6020      6080      6157      6570      6511      7321      7153      7574      7591      8489     11428     11981     11964     12451     12410 
dram[10]:      6015      6005      6201      7100      6509      6522      9634      6978      7188      9507      8497     11436     11994     11970     12429     12406 
dram[11]:      6129      6718      6107      6088      6567      8116      9504      9386      7239      9152      8789     11279     12371     12373     12807     12624 
dram[12]:      6053      6025      7197      6064      6594      8207      9663      7004      7220      7376      9071     11418     12339     12309     12623     12674 
dram[13]:      6191      6196      6250      6576      6675      8114      6898      7087      7348      7458      8574     11450     12430     12390     12841     12687 
dram[14]:      6237      6838      6576      6688      6753      6795      6963      7212      7308      7564      8605     11484     12358     12365     12783     12623 
dram[15]:      6220      6172      9803      6627      6733      6779      6962      7155      9124      8982      8584     11475     12030     12086     12522     12490 
dram[16]:      7894      9413      9255      6082      7359      6397      6984      6690      8759      6966     11069     11434     12124     12050     12480     12411 
dram[17]:      6036      6271      6079      6612      6566      6497      6995      6946      7287      7303     11053     11438     12146     12048     12531     12552 
dram[18]:      6179      6881      6036      6747      6615      6482      7070      6883      7289      7223     11175     11456     12125     11988     12542     12458 
dram[19]:      6238      6589      6672      7064      6661      6530      7066      6735      7335      7261     11202     11416     12275     12186     12615     12658 
dram[20]:      6865      6357      6089      6741      6683      6511      6930      6810      7356      9095     11150     11471     12110     12029     12483     12402 
dram[21]:      7003      6777      6949      7059      6765      6650      6950      6951      7434      7477     11030     11408     12186     12128     12570     12571 
dram[22]:      6910      6748      6754      6471      6816      8219      7153      7100      7498      7526     11324     11555     12168     12062     12608     12475 
dram[23]:      6289      6175      6830      6820      6806      6713      7036      7016      7560      7516     11194     11495     12378     12281     12765     12752 
dram[24]:      6548      6916      6588      6266      6446      6405      6815      6681      6931      7133     11255     11266     12442     12394     12682     12619 
dram[25]:      6274      6663      6079      6032      6565      6493      9004      6850      7268      7255     10893     11150     12109     11978     12395     12338 
dram[26]:      6011      6004      6032      6828      6546      6481      9022      6778      9174      7167     11231     11398     12476     12417     12897     12723 
dram[27]:      6280      6029      8972      6069      7959      6531      9101      6746      7353      7097     11198     11564     12516     12446     12837     12730 
dram[28]:      9144      6021      6093      6049      6574      8238      7006      9306      7275      7172     11141     11567     12532     12446     12739     12702 
dram[29]:      9141      6165      6253      9087      6679      6659      9494      6898      7430      7259     11472     11512     12492     12418     12760     12687 
dram[30]:      6662      6188      6496      6310      8010      6729      7267      8795      7566      7312     11438     11653     12217     12124     12455     12487 
dram[31]:      9127      6180      6316      6297      6730      6731      7231      7056      7494      7293     11218     11307     12535     12508     12793     12823 
average row accesses per activate:
dram[0]: 15.606061 18.156250 10.957447 13.205129 15.470589 14.052631 15.878788 15.000000 13.764706 18.680000 10.608696 13.236842 14.333333 16.166666 18.440001 14.866667 
dram[1]: 16.514286 18.312500 14.944445 18.068966 22.625000 25.047619 23.695652 22.500000 20.260870 21.318182 14.272727 14.515152 22.095238 17.518518 26.058823 20.590910 
dram[2]: 21.884615 19.612904 16.500000 13.769231 22.869566 26.190475 20.500000 21.360001 19.307692 28.812500 11.227273 16.793104 24.052631 18.148148 21.571428 24.944445 
dram[3]: 19.700001 21.142857 19.777779 14.972222 18.379311 22.125000 19.074074 18.344828 17.285715 33.461540 14.212121 17.518518 18.760000 16.464285 21.476191 20.208334 
dram[4]: 20.266666 20.344828 16.937500 19.000000 21.200001 20.719999 16.656250 17.666666 19.600000 21.571428 12.842105 16.033333 16.551723 18.959999 16.586206 15.031250 
dram[5]: 20.466667 22.583334 18.379311 17.620689 24.714285 26.315790 16.967741 18.714285 14.171429 19.360001 11.090909 15.333333 15.200000 18.160000 22.285715 20.583334 
dram[6]: 19.181818 24.333334 15.685715 18.035715 24.545454 25.380953 20.692308 18.517241 20.652174 23.789474 14.843750 17.250000 20.250000 18.615385 24.368422 15.218750 
dram[7]: 18.424242 23.652174 14.914286 18.103449 25.090910 29.722221 19.148148 23.318182 22.190475 24.000000 13.333333 13.911765 15.129032 15.060606 20.043478 18.615385 
dram[8]: 16.973684 17.931034 11.688889 13.794871 14.486486 15.742857 13.947369 14.578947 15.516129 16.571428 12.405405 12.540541 11.190476 15.827586 10.977273 12.305555 
dram[9]: 19.636364 22.958334 20.920000 18.793104 19.555555 31.764706 22.291666 23.272728 18.600000 26.555555 19.666666 18.269230 16.448277 18.074074 15.200000 18.639999 
dram[10]: 16.219513 22.080000 16.903225 17.741936 23.217392 27.600000 24.000000 29.388889 19.076923 30.200001 17.206896 15.774194 16.620689 18.296297 19.559999 21.863636 
dram[11]: 20.812500 23.750000 13.897436 15.257143 24.666666 30.941177 24.428572 30.235294 16.133333 26.705883 13.657143 14.531250 18.037037 27.294117 18.185184 19.625000 
dram[12]: 20.151516 20.888889 17.866667 12.204545 22.000000 30.277779 22.521740 22.217392 18.111111 26.705883 17.074074 21.619047 17.206896 25.421053 23.000000 22.952381 
dram[13]: 18.083334 20.925926 14.675675 15.111111 22.583334 31.117647 21.375000 21.240000 19.320000 26.166666 13.906250 16.133333 15.666667 17.740740 21.454546 22.047619 
dram[14]: 18.108109 22.869566 17.500000 18.366667 22.956522 25.095238 18.642857 25.900000 17.555555 27.117647 15.900000 18.000000 14.181818 21.227272 16.500000 23.100000 
dram[15]: 18.243244 20.360001 15.303030 14.236842 25.799999 31.411764 16.709677 25.500000 18.423077 28.812500 18.461538 13.542857 14.250000 17.384615 21.090910 18.760000 
dram[16]: 13.387755 17.806452 10.775510 14.500000 14.750000 15.111111 15.428572 14.800000 13.484848 17.333334 17.285715 16.250000 16.517241 16.962963 17.148148 16.310345 
dram[17]: 16.717949 26.045454 17.058823 20.769230 21.541666 29.000000 22.565218 25.150000 21.909090 31.928572 16.964285 18.916666 22.900000 21.000000 25.944445 19.760000 
dram[18]: 17.459459 25.181818 13.560976 17.612904 20.769230 32.750000 20.730770 24.047619 20.208334 29.062500 19.041666 22.047619 23.450001 20.347826 23.631578 24.842106 
dram[19]: 19.228571 22.458334 15.135135 21.840000 28.777779 27.650000 24.809525 17.931034 22.952381 30.062500 19.541666 18.307692 23.700001 18.115385 23.549999 19.916666 
dram[20]: 23.689655 23.250000 16.558823 17.833334 21.576923 27.200001 19.923077 20.807692 24.700001 33.071430 18.269230 18.600000 20.956522 20.217392 25.944445 22.809525 
dram[21]: 13.018867 26.590910 16.342857 18.133333 20.370371 25.095238 17.566668 16.029411 22.619047 30.187500 21.090910 19.360001 21.727272 22.809525 25.368422 25.368422 
dram[22]: 19.757576 26.045454 19.777779 16.812500 21.666666 23.500000 24.900000 23.130434 20.434782 29.187500 20.260870 18.038462 18.296297 20.043478 19.416666 22.952381 
dram[23]: 21.733334 24.041666 16.484848 21.520000 22.695652 25.136364 18.034483 23.000000 23.238094 28.750000 18.230770 25.210526 23.900000 19.041666 27.176470 21.043478 
dram[24]: 18.823530 14.891891 13.219512 16.774193 16.562500 16.741936 17.400000 16.612904 18.000000 18.538462 14.593750 12.972222 15.166667 13.470589 20.090910 15.714286 
dram[25]: 16.275000 24.000000 19.035715 18.103449 26.250000 33.187500 31.250000 23.952381 23.299999 20.260870 15.633333 13.771428 17.037037 16.785715 29.000000 18.333334 
dram[26]: 17.026316 20.392857 19.178572 17.096775 27.400000 33.437500 25.150000 19.074074 33.214287 21.590910 20.652174 15.406250 18.461538 17.259260 27.588236 21.380953 
dram[27]: 19.303030 23.458334 16.903225 18.666666 27.842106 25.571428 26.894737 18.678572 24.526316 17.888889 19.125000 14.382353 19.120001 20.040001 26.388889 22.000000 
dram[28]: 22.500000 23.375000 14.771428 16.843750 26.549999 25.500000 24.285715 19.730770 22.799999 24.263159 18.076923 14.968750 16.066668 16.857143 25.722221 20.714285 
dram[29]: 26.869566 24.227272 16.967741 21.250000 24.454546 32.375000 22.125000 23.454546 22.333334 18.920000 18.920000 15.903226 16.633333 17.071428 21.045454 19.863636 
dram[30]: 29.285715 22.750000 22.375000 21.559999 26.190475 30.823530 27.444445 22.130434 30.799999 20.652174 19.869566 14.515152 17.103449 16.100000 25.333334 18.391304 
dram[31]: 24.192308 22.559999 15.166667 21.833334 26.799999 30.166666 21.666666 21.040001 26.647058 26.352942 17.000000 13.777778 19.708334 18.791666 22.190475 20.952381 
average row locality = 260531/13551 = 19.225962
number of total memory accesses made:
dram[0]:         0         0         0         0         0         0         0         0         0         0         0         0         0         0         0         0 
dram[1]:         0         0         0         0         0         0         0         0         0         0         0         0         0         0         0         0 
dram[2]:         0         0         0         0         0         0         0         0         0         0         0         0         0         0         0         0 
dram[3]:         0         0         0         0         0         0         0         0         0         0         0         0         0         0         0         0 
dram[4]:         0         0         0         0         0         0         0         0         0         0         0         0         0         0         0         0 
dram[5]:         0         0         0         0         0         0         0         0         0         0         0         0         0         0         0         0 
dram[6]:         0         0         0         0         0         0         0         0         0         0         0         0         0         0         0         0 
dram[7]:         0         0         0         0         0         0         0         0         0         0         0         0         0         0         0         0 
dram[8]:         0         0         0         0         0         0         0         0         0         0         0         0         0         0         0         0 
dram[9]:         0         0         0         0         0         0         0         0         0         0         0         0         0         0         0         0 
dram[10]:         0         0         0         0         0         0         0         0         0         0         0         0         0         0         0         0 
dram[11]:         0         0         0         0         0         0         0         0         0         0         0         0         0         0         0         0 
dram[12]:         0         0         0         0         0         0         0         0         0         0         0         0         0         0         0         0 
dram[13]:         0         0         0         0         0         0         0         0         0         0         0         0         0         0         0         0 
dram[14]:         0         0         0         0         0         0         0         0         0         0         0         0         0         0         0         0 
dram[15]:         0         0         0         0         0         0         0         0         0         0         0         0         0         0         0         0 
dram[16]:         0         0         0         0         0         0         0         0         0         0         0         0         0         0         0         0 
dram[17]:         0         0         0         0         0         0         0         0         0         0         0         0         0         0         0         0 
dram[18]:         0         0         0         0         0         0         0         0         0         0         0         0         0         0         0         0 
dram[19]:         0         0         0         0         0         0         0         0         0         0         0         0         0         0         0         0 
dram[20]:         0         0         0         0         0         0         0         0         0         0         0         0         0         0         0         0 
dram[21]:         0         0         0         0         0         0         0         0         0         0         0         0         0         0         0         0 
dram[22]:         0         0         0         0         0         0         0         0         0         0         0         0         0         0         0         0 
dram[23]:         0         0         0         0         0         0         0         0         0         0         0         0         0         0         0         0 
dram[24]:         0         0         0         0         0         0         0         0         0         0         0         0         0         0         0         0 
dram[25]:         0         0         0         0         0         0         0         0         0         0         0         0         0         0         0         0 
dram[26]:         0         0         0         0         0         0         0         0         0         0         0         0         0         0         0         0 
dram[27]:         0         0         0         0         0         0         0         0         0         0         0         0         0         0         0         0 
dram[28]:         0         0         0         0         0         0         0         0         0         0         0         0         0         0         0         0 
dram[29]:         0         0         0         0         0         0         0         0         0         0         0         0         0         0         0         0 
dram[30]:         0         0         0         0         0         0         0         0         0         0         0         0         0         0         0         0 
dram[31]:         0         0         0         0         0         0         0         0         0         0         0         0         0         0         0         0 
total accesses: 0
min_bank_accesses = 0!
min_chip_accesses = 0!
number of total read accesses:
[...]
n_act = 396 
n_pre = 380 
n_ref = 0 
n_req = 8180 
total_req = 11043 

Dual Bus Interface Util: 
issued_total_row = 776 
issued_total_col = 11043 
Row_Bus_Util =  0.026019 
CoL_Bus_Util = 0.370272 
Either_Row_CoL_Bus_Util = 0.380566 
Issued_on_Two_Bus_Simul_Util = 0.015726 
issued_two_Eff = 0.041322 
queue_avg = 11.703125 


dram_util_bins: 0 0 0 0 0 0 0 0 0 0
dram_eff_bins: 0 0 0 0 0 0 0 0 0 0
mrqq: max=64 avg=11.7031
Memory Partition 28: 
Cache L2_bank_056:

Cache L2_bank_057:

In Dram Latency Queue (total = 130): 
DRAM[28]: 16 bks, busW=16 BL=2 CL=12, tRRD=3 tCCD=1, tRCD=12 tRAS=28 tRP=12 tRC=40
n_cmd=29824 n_nop=18819 n_act=399 n_pre=384 n_ref_event=0 n_req=8029 n_rd=6616 n_rd_L2_A=0 n_write=0 n_wr_bk=4103 bw_util=0.3594
n_activity=17481 dram_eff=0.6132
bk0: 448a 26098i bk1: 448a 26535i bk2: 448a 27277i bk3: 448a 26566i bk4: 448a 26785i bk5: 448a 27370i bk6: 432a 27569i bk7: 440a 27122i bk8: 384a 26730i bk9: 384a 26794i bk10: 384a 27633i bk11: 384a 27666i bk12: 384a 26876i bk13: 384a 27048i bk14: 384a 26936i bk15: 368a 27103i 

------------------------------------------------------------------------

Row_Buffer_Locality = 0.950181
Row_Buffer_Locality_read = 0.969468
Row_Buffer_Locality_write = 0.859873
Bank_Level_Parallism = 3.292659
Bank_Level_Parallism_Col = 3.019853
Bank_Level_Parallism_Ready = 1.637933
write_to_read_ratio_blp_rw_average = 0.429843
GrpLevelPara = 2.346007 

BW Util details:
bwutil = 0.359409 
total_CMD = 29824 
util_bw = 10719 
Wasted_Col = 4744 
Wasted_Row = 665 
Idle = 13696 

BW Util Bottlenecks: 
RCDc_limit = 673 
RCDWRc_limit = 895 
WTRc_limit = 2281 
RTWc_limit = 4048 
CCDLc_limit = 3576 
rwq = 0 
CCDLc_limit_alone = 2789 
WTRc_limit_alone = 1859 
RTWc_limit_alone = 3683 

Commands details: 
total_CMD = 29824 
n_nop = 18819 
Read = 6616 
Write = 0 
L2_Alloc = 0 
L2_WB = 4103 
n_act = 399 
n_pre = 384 
n_ref = 0 
n_req = 8029 
total_req = 10719 

Dual Bus Interface Util: 
issued_total_row = 783 
issued_total_col = 10719 
Row_Bus_Util =  0.026254 
CoL_Bus_Util = 0.359409 
Either_Row_CoL_Bus_Util = 0.368998 
Issued_on_Two_Bus_Simul_Util = 0.016664 
issued_two_Eff = 0.045161 
queue_avg = 12.170668 


dram_util_bins: 0 0 0 0 0 0 0 0 0 0
dram_eff_bins: 0 0 0 0 0 0 0 0 0 0
mrqq: max=64 avg=12.1707
Memory Partition 29: 
Cache L2_bank_058:

Cache L2_bank_059:

In Dram Latency Queue (total = 114): 
DRAM[29]: 16 bks, busW=16 BL=2 CL=12, tRRD=3 tCCD=1, tRCD=12 tRAS=28 tRP=12 tRC=40
n_cmd=29824 n_nop=18703 n_act=388 n_pre=372 n_ref_event=0 n_req=8075 n_rd=6617 n_rd_L2_A=0 n_write=0 n_wr_bk=4179 bw_util=0.362
n_activity=18244 dram_eff=0.5918
bk0: 448a 26063i bk1: 448a 26727i bk2: 448a 27120i bk3: 448a 27135i bk4: 448a 27287i bk5: 448a 27318i bk6: 433a 27369i bk7: 440a 26165i bk8: 384a 25510i bk9: 384a 25139i bk10: 384a 27428i bk11: 384a 26816i bk12: 384a 27135i bk13: 384a 27001i bk14: 384a 27262i bk15: 368a 26666i 

------------------------------------------------------------------------

Row_Buffer_Locality = 0.951950
Row_Buffer_Locality_read = 0.970984
Row_Buffer_Locality_write = 0.865569
Bank_Level_Parallism = 3.345458
Bank_Level_Parallism_Col = 3.149655
Bank_Level_Parallism_Ready = 1.635606
write_to_read_ratio_blp_rw_average = 0.488094
GrpLevelPara = 2.368936 

BW Util details:
bwutil = 0.361990 
total_CMD = 29824 
util_bw = 10796 
Wasted_Col = 5507 
Wasted_Row = 770 
Idle = 12751 

BW Util Bottlenecks: 
RCDc_limit = 657 
RCDWRc_limit = 1067 
WTRc_limit = 2694 
RTWc_limit = 5356 
CCDLc_limit = 4254 
rwq = 0 
CCDLc_limit_alone = 3262 
WTRc_limit_alone = 2198 
RTWc_limit_alone = 4860 

Commands details: 
total_CMD = 29824 
n_nop = 18703 
Read = 6617 
Write = 0 
L2_Alloc = 0 
L2_WB = 4179 
n_act = 388 
n_pre = 372 
n_ref = 0 
n_req = 8075 
total_req = 10796 

Dual Bus Interface Util: 
issued_total_row = 760 
issued_total_col = 10796 
Row_Bus_Util =  0.025483 
CoL_Bus_Util = 0.361990 
Either_Row_CoL_Bus_Util = 0.372888 
Issued_on_Two_Bus_Simul_Util = 0.014586 
issued_two_Eff = 0.039115 
queue_avg = 12.799960 


dram_util_bins: 0 0 0 0 0 0 0 0 0 0
dram_eff_bins: 0 0 0 0 0 0 0 0 0 0
mrqq: max=64 avg=12.8
Memory Partition 30: 
Cache L2_bank_060:

Cache L2_bank_061:

In Dram Latency Queue (total = 136): 
DRAM[30]: 16 bks, busW=16 BL=2 CL=12, tRRD=3 tCCD=1, tRCD=12 tRAS=28 tRP=12 tRC=40
n_cmd=29824 n_nop=18753 n_act=367 n_pre=351 n_ref_event=0 n_req=8045 n_rd=6608 n_rd_L2_A=0 n_write=0 n_wr_bk=4164 bw_util=0.3612
n_activity=18430 dram_eff=0.5845
bk0: 448a 26663i bk1: 448a 26773i bk2: 448a 26731i bk3: 448a 26555i bk4: 448a 27239i bk5: 448a 27349i bk6: 432a 28037i bk7: 432a 27738i bk8: 384a 27374i bk9: 384a 26592i bk10: 384a 27710i bk11: 384a 27081i bk12: 384a 27300i bk13: 384a 26997i bk14: 384a 27020i bk15: 368a 27055i 

------------------------------------------------------------------------

Row_Buffer_Locality = 0.954382
Row_Buffer_Locality_read = 0.970188
Row_Buffer_Locality_write = 0.881698
Bank_Level_Parallism = 3.019473
Bank_Level_Parallism_Col = 2.806244
Bank_Level_Parallism_Ready = 1.558856
write_to_read_ratio_blp_rw_average = 0.444941
GrpLevelPara = 2.259725 

BW Util details:
bwutil = 0.361186 
total_CMD = 29824 
util_bw = 10772 
Wasted_Col = 5434 
Wasted_Row = 689 
Idle = 12929 

BW Util Bottlenecks: 
RCDc_limit = 689 
RCDWRc_limit = 884 
WTRc_limit = 2772 
RTWc_limit = 3987 
CCDLc_limit = 4176 
rwq = 0 
CCDLc_limit_alone = 3285 
WTRc_limit_alone = 2298 
RTWc_limit_alone = 3570 

Commands details: 
total_CMD = 29824 
n_nop = 18753 
Read = 6608 
Write = 0 
L2_Alloc = 0 
L2_WB = 4164 
n_act = 367 
n_pre = 351 
n_ref = 0 
n_req = 8045 
total_req = 10772 

Dual Bus Interface Util: 
issued_total_row = 718 
issued_total_col = 10772 
Row_Bus_Util =  0.024075 
CoL_Bus_Util = 0.361186 
Either_Row_CoL_Bus_Util = 0.371211 
Issued_on_Two_Bus_Simul_Util = 0.014049 
issued_two_Eff = 0.037847 
queue_avg = 11.825208 


dram_util_bins: 0 0 0 0 0 0 0 0 0 0
dram_eff_bins: 0 0 0 0 0 0 0 0 0 0
mrqq: max=64 avg=11.8252
Memory Partition 31: 
Cache L2_bank_062:

Cache L2_bank_063:

In Dram Latency Queue (total = 90): 
DRAM[31]: 16 bks, busW=16 BL=2 CL=12, tRRD=3 tCCD=1, tRCD=12 tRAS=28 tRP=12 tRC=40
n_cmd=29824 n_nop=18660 n_act=385 n_pre=369 n_ref_event=0 n_req=8085 n_rd=6604 n_rd_L2_A=0 n_write=0 n_wr_bk=4241 bw_util=0.3636
n_activity=18622 dram_eff=0.5824
bk0: 448a 26004i bk1: 448a 27081i bk2: 448a 26743i bk3: 448a 26874i bk4: 448a 27387i bk5: 448a 26910i bk6: 432a 27522i bk7: 428a 26968i bk8: 384a 27370i bk9: 384a 27111i bk10: 384a 27500i bk11: 384a 27132i bk12: 384a 27802i bk13: 384a 27707i bk14: 384a 27309i bk15: 368a 27572i 

------------------------------------------------------------------------

Row_Buffer_Locality = 0.952316
Row_Buffer_Locality_read = 0.969417
Row_Buffer_Locality_write = 0.875425
Bank_Level_Parallism = 2.892450
Bank_Level_Parallism_Col = 2.694815
Bank_Level_Parallism_Ready = 1.600553
write_to_read_ratio_blp_rw_average = 0.461924
GrpLevelPara = 2.190505 

BW Util details:
bwutil = 0.363633 
total_CMD = 29824 
util_bw = 10845 
Wasted_Col = 5692 
Wasted_Row = 841 
Idle = 12446 

BW Util Bottlenecks: 
RCDc_limit = 864 
RCDWRc_limit = 890 
WTRc_limit = 1958 
RTWc_limit = 4881 
CCDLc_limit = 3851 
rwq = 0 
CCDLc_limit_alone = 3086 
WTRc_limit_alone = 1688 
RTWc_limit_alone = 4386 

Commands details: 
total_CMD = 29824 
n_nop = 18660 
Read = 6604 
Write = 0 
L2_Alloc = 0 
L2_WB = 4241 
n_act = 385 
n_pre = 369 
n_ref = 0 
n_req = 8085 
total_req = 10845 

Dual Bus Interface Util: 
issued_total_row = 754 
issued_total_col = 10845 
Row_Bus_Util =  0.025282 
CoL_Bus_Util = 0.363633 
Either_Row_CoL_Bus_Util = 0.374329 
Issued_on_Two_Bus_Simul_Util = 0.014586 
issued_two_Eff = 0.038965 
queue_avg = 10.862091 


dram_util_bins: 0 0 0 0 0 0 0 0 0 0
dram_eff_bins: 0 0 0 0 0 0 0 0 0 0
mrqq: max=64 avg=10.8621

========= L2 cache stats =========
L2_cache_bank[0]: Access = 17575, Miss = 7152, Miss_rate = 0.407, Pending_hits = 57, Reservation_fails = 0
L2_cache_bank[1]: Access = 18126, Miss = 7273, Miss_rate = 0.401, Pending_hits = 22, Reservation_fails = 4
L2_cache_bank[2]: Access = 17804, Miss = 7333, Miss_rate = 0.412, Pending_hits = 64, Reservation_fails = 667
L2_cache_bank[3]: Access = 17775, Miss = 7243, Miss_rate = 0.407, Pending_hits = 20, Reservation_fails = 48
L2_cache_bank[4]: Access = 17894, Miss = 7261, Miss_rate = 0.406, Pending_hits = 182, Reservation_fails = 1060
L2_cache_bank[5]: Access = 17913, Miss = 7132, Miss_rate = 0.398, Pending_hits = 207, Reservation_fails = 665
L2_cache_bank[6]: Access = 17901, Miss = 7323, Miss_rate = 0.409, Pending_hits = 178, Reservation_fails = 819
L2_cache_bank[7]: Access = 18064, Miss = 7235, Miss_rate = 0.401, Pending_hits = 201, Reservation_fails = 8
L2_cache_bank[8]: Access = 17904, Miss = 7163, Miss_rate = 0.400, Pending_hits = 96, Reservation_fails = 783
L2_cache_bank[9]: Access = 18029, Miss = 7245, Miss_rate = 0.402, Pending_hits = 184, Reservation_fails = 441
L2_cache_bank[10]: Access = 17840, Miss = 7250, Miss_rate = 0.406, Pending_hits = 117, Reservation_fails = 684
L2_cache_bank[11]: Access = 17919, Miss = 7247, Miss_rate = 0.404, Pending_hits = 116, Reservation_fails = 526
L2_cache_bank[12]: Access = 17855, Miss = 7130, Miss_rate = 0.399, Pending_hits = 68, Reservation_fails = 585
L2_cache_bank[13]: Access = 17908, Miss = 7141, Miss_rate = 0.399, Pending_hits = 85, Reservation_fails = 2
L2_cache_bank[14]: Access = 17721, Miss = 7331, Miss_rate = 0.414, Pending_hits = 126, Reservation_fails = 519
L2_cache_bank[15]: Access = 17739, Miss = 7171, Miss_rate = 0.404, Pending_hits = 119, Reservation_fails = 25
L2_cache_bank[16]: Access = 18213, Miss = 7363, Miss_rate = 0.404, Pending_hits = 19, Reservation_fails = 25
L2_cache_bank[17]: Access = 18061, Miss = 7249, Miss_rate = 0.401, Pending_hits = 59, Reservation_fails = 977
L2_cache_bank[18]: Access = 17962, Miss = 7451, Miss_rate = 0.415, Pending_hits = 208, Reservation_fails = 106
L2_cache_bank[19]: Access = 17535, Miss = 7192, Miss_rate = 0.410, Pending_hits = 217, Reservation_fails = 351
L2_cache_bank[20]: Access = 18202, Miss = 7240, Miss_rate = 0.398, Pending_hits = 181, Reservation_fails = 134
L2_cache_bank[21]: Access = 17758, Miss = 7116, Miss_rate = 0.401, Pending_hits = 248, Reservation_fails = 191
L2_cache_bank[22]: Access = 18046, Miss = 7349, Miss_rate = 0.407, Pending_hits = 47, Reservation_fails = 39
L2_cache_bank[23]: Access = 17735, Miss = 7277, Miss_rate = 0.410, Pending_hits = 71, Reservation_fails = 541
L2_cache_bank[24]: Access = 18138, Miss = 7305, Miss_rate = 0.403, Pending_hits = 94, Reservation_fails = 228
L2_cache_bank[25]: Access = 18131, Miss = 7208, Miss_rate = 0.398, Pending_hits = 183, Reservation_fails = 272
L2_cache_bank[26]: Access = 18103, Miss = 7359, Miss_rate = 0.407, Pending_hits = 36, Reservation_fails = 0
L2_cache_bank[27]: Access = 18018, Miss = 7187, Miss_rate = 0.399, Pending_hits = 87, Reservation_fails = 710
L2_cache_bank[28]: Access = 18064, Miss = 7314, Miss_rate = 0.405, Pending_hits = 163, Reservation_fails = 0
L2_cache_bank[29]: Access = 17844, Miss = 7193, Miss_rate = 0.403, Pending_hits = 105, Reservation_fails = 428
L2_cache_bank[30]: Access = 17862, Miss = 7401, Miss_rate = 0.414, Pending_hits = 18, Reservation_fails = 0
L2_cache_bank[31]: Access = 17761, Miss = 7292, Miss_rate = 0.411, Pending_hits = 82, Reservation_fails = 288
L2_cache_bank[32]: Access = 18246, Miss = 7337, Miss_rate = 0.402, Pending_hits = 72, Reservation_fails = 0
L2_cache_bank[33]: Access = 17921, Miss = 7206, Miss_rate = 0.402, Pending_hits = 68, Reservation_fails = 8
L2_cache_bank[34]: Access = 17938, Miss = 7369, Miss_rate = 0.411, Pending_hits = 4, Reservation_fails = 156
L2_cache_bank[35]: Access = 17544, Miss = 7216, Miss_rate = 0.411, Pending_hits = 17, Reservation_fails = 54
L2_cache_bank[36]: Access = 18031, Miss = 7305, Miss_rate = 0.405, Pending_hits = 0, Reservation_fails = 0
L2_cache_bank[37]: Access = 17707, Miss = 7232, Miss_rate = 0.408, Pending_hits = 0, Reservation_fails = 491
L2_cache_bank[38]: Access = 17923, Miss = 7316, Miss_rate = 0.408, Pending_hits = 0, Reservation_fails = 128
L2_cache_bank[39]: Access = 17571, Miss = 7180, Miss_rate = 0.409, Pending_hits = 0, Reservation_fails = 561
L2_cache_bank[40]: Access = 17839, Miss = 7151, Miss_rate = 0.401, Pending_hits = 0, Reservation_fails = 0
L2_cache_bank[41]: Access = 17597, Miss = 7172, Miss_rate = 0.408, Pending_hits = 0, Reservation_fails = 448
L2_cache_bank[42]: Access = 17904, Miss = 7192, Miss_rate = 0.402, Pending_hits = 0, Reservation_fails = 0
L2_cache_bank[43]: Access = 17644, Miss = 7037, Miss_rate = 0.399, Pending_hits = 0, Reservation_fails = 148
L2_cache_bank[44]: Access = 18120, Miss = 7313, Miss_rate = 0.404, Pending_hits = 4, Reservation_fails = 0
L2_cache_bank[45]: Access = 17677, Miss = 7108, Miss_rate = 0.402, Pending_hits = 28, Reservation_fails = 125
L2_cache_bank[46]: Access = 18099, Miss = 7349, Miss_rate = 0.406, Pending_hits = 9, Reservation_fails = 409
L2_cache_bank[47]: Access = 17756, Miss = 7176, Miss_rate = 0.404, Pending_hits = 38, Reservation_fails = 289
L2_cache_bank[48]: Access = 18122, Miss = 7385, Miss_rate = 0.408, Pending_hits = 37, Reservation_fails = 0
L2_cache_bank[49]: Access = 17568, Miss = 7146, Miss_rate = 0.407, Pending_hits = 35, Reservation_fails = 473
L2_cache_bank[50]: Access = 17959, Miss = 7427, Miss_rate = 0.414, Pending_hits = 15, Reservation_fails = 0
L2_cache_bank[51]: Access = 17359, Miss = 7211, Miss_rate = 0.415, Pending_hits = 14, Reservation_fails = 0
L2_cache_bank[52]: Access = 17940, Miss = 7292, Miss_rate = 0.406, Pending_hits = 5, Reservation_fails = 12
L2_cache_bank[53]: Access = 17592, Miss = 7088, Miss_rate = 0.403, Pending_hits = 0, Reservation_fails = 654
L2_cache_bank[54]: Access = 18193, Miss = 7397, Miss_rate = 0.407, Pending_hits = 9, Reservation_fails = 0
L2_cache_bank[55]: Access = 17633, Miss = 7000, Miss_rate = 0.397, Pending_hits = 4, Reservation_fails = 393
L2_cache_bank[56]: Access = 18197, Miss = 7374, Miss_rate = 0.405, Pending_hits = 4, Reservation_fails = 34
L2_cache_bank[57]: Access = 17808, Miss = 7120, Miss_rate = 0.400, Pending_hits = 6, Reservation_fails = 528
L2_cache_bank[58]: Access = 18174, Miss = 7228, Miss_rate = 0.398, Pending_hits = 12, Reservation_fails = 0
L2_cache_bank[59]: Access = 17793, Miss = 7076, Miss_rate = 0.398, Pending_hits = 14, Reservation_fails = 577
L2_cache_bank[60]: Access = 18006, Miss = 7264, Miss_rate = 0.403, Pending_hits = 0, Reservation_fails = 0
L2_cache_bank[61]: Access = 17542, Miss = 7020, Miss_rate = 0.400, Pending_hits = 8, Reservation_fails = 0
L2_cache_bank[62]: Access = 18025, Miss = 7405, Miss_rate = 0.411, Pending_hits = 56, Reservation_fails = 44
L2_cache_bank[63]: Access = 17631, Miss = 7136, Miss_rate = 0.405, Pending_hits = 43, Reservation_fails = 437
L2_total_cache_accesses = 1144459
L2_total_cache_misses = 463354
L2_total_cache_miss_rate = 0.4049
L2_total_cache_pending_hits = 4162
L2_total_cache_reservation_fails = 17095
L2_total_cache_breakdown:
	L2_cache_stats_breakdown[GLOBAL_ACC_R][HIT] = 641232
	L2_cache_stats_breakdown[GLOBAL_ACC_R][HIT_RESERVED] = 4162
	L2_cache_stats_breakdown[GLOBAL_ACC_R][MISS] = 53415
	L2_cache_stats_breakdown[GLOBAL_ACC_R][RESERVATION_FAIL] = 17095
	L2_cache_stats_breakdown[GLOBAL_ACC_R][SECTOR_MISS] = 160223
	L2_cache_stats_breakdown[LOCAL_ACC_R][HIT] = 0
	L2_cache_stats_breakdown[LOCAL_ACC_R][HIT_RESERVED] = 0
	L2_cache_stats_breakdown[LOCAL_ACC_R][MISS] = 0
	L2_cache_stats_breakdown[LOCAL_ACC_R][RESERVATION_FAIL] = 0
	L2_cache_stats_breakdown[LOCAL_ACC_R][SECTOR_MISS] = 0
	L2_cache_stats_breakdown[CONST_ACC_R][HIT] = 0
	L2_cache_stats_breakdown[CONST_ACC_R][HIT_RESERVED] = 0
	L2_cache_stats_breakdown[CONST_ACC_R][MISS] = 0
	L2_cache_stats_breakdown[CONST_ACC_R][RESERVATION_FAIL] = 0
	L2_cache_stats_breakdown[CONST_ACC_R][SECTOR_MISS] = 0
	L2_cache_stats_breakdown[TEXTURE_ACC_R][HIT] = 0
	L2_cache_stats_breakdown[TEXTURE_ACC_R][HIT_RESERVED] = 0
	L2_cache_stats_breakdown[TEXTURE_ACC_R][MISS] = 0
	L2_cache_stats_breakdown[TEXTURE_ACC_R][RESERVATION_FAIL] = 0
	L2_cache_stats_breakdown[TEXTURE_ACC_R][SECTOR_MISS] = 0
	L2_cache_stats_breakdown[GLOBAL_ACC_W][HIT] = 35711
	L2_cache_stats_breakdown[GLOBAL_ACC_W][HIT_RESERVED] = 0
	L2_cache_stats_breakdown[GLOBAL_ACC_W][MISS] = 137129
	L2_cache_stats_breakdown[GLOBAL_ACC_W][RESERVATION_FAIL] = 0
	L2_cache_stats_breakdown[GLOBAL_ACC_W][SECTOR_MISS] = 112587
	L2_cache_stats_breakdown[LOCAL_ACC_W][HIT] = 0
	L2_cache_stats_breakdown[LOCAL_ACC_W][HIT_RESERVED] = 0
	L2_cache_stats_breakdown[LOCAL_ACC_W][MISS] = 0
	L2_cache_stats_breakdown[LOCAL_ACC_W][RESERVATION_FAIL] = 0
	L2_cache_stats_breakdown[LOCAL_ACC_W][SECTOR_MISS] = 0
	L2_cache_stats_breakdown[L1_WRBK_ACC][HIT] = 0
	L2_cache_stats_breakdown[L1_WRBK_ACC][HIT_RESERVED] = 0
	L2_cache_stats_breakdown[L1_WRBK_ACC][MISS] = 0
	L2_cache_stats_breakdown[L1_WRBK_ACC][RESERVATION_FAIL] = 0
	L2_cache_stats_breakdown[L1_WRBK_ACC][SECTOR_MISS] = 0
	L2_cache_stats_breakdown[L2_WRBK_ACC][HIT] = 0
	L2_cache_stats_breakdown[L2_WRBK_ACC][HIT_RESERVED] = 0
	L2_cache_stats_breakdown[L2_WRBK_ACC][MISS] = 0
	L2_cache_stats_breakdown[L2_WRBK_ACC][RESERVATION_FAIL] = 0
	L2_cache_stats_breakdown[L2_WRBK_ACC][SECTOR_MISS] = 0
	L2_cache_stats_breakdown[INST_ACC_R][HIT] = 0
	L2_cache_stats_breakdown[INST_ACC_R][HIT_RESERVED] = 0
	L2_cache_stats_breakdown[INST_ACC_R][MISS] = 0
	L2_cache_stats_breakdown[INST_ACC_R][RESERVATION_FAIL] = 0
	L2_cache_stats_breakdown[INST_ACC_R][SECTOR_MISS] = 0
	L2_cache_stats_breakdown[L1_WR_ALLOC_R][HIT] = 0
	L2_cache_stats_breakdown[L1_WR_ALLOC_R][HIT_RESERVED] = 0
	L2_cache_stats_breakdown[L1_WR_ALLOC_R][MISS] = 0
	L2_cache_stats_breakdown[L1_WR_ALLOC_R][RESERVATION_FAIL] = 0
	L2_cache_stats_breakdown[L1_WR_ALLOC_R][SECTOR_MISS] = 0
	L2_cache_stats_breakdown[L2_WR_ALLOC_R][HIT] = 0
	L2_cache_stats_breakdown[L2_WR_ALLOC_R][HIT_RESERVED] = 0
	L2_cache_stats_breakdown[L2_WR_ALLOC_R][MISS] = 0
	L2_cache_stats_breakdown[L2_WR_ALLOC_R][RESERVATION_FAIL] = 0
	L2_cache_stats_breakdown[L2_WR_ALLOC_R][SECTOR_MISS] = 0
	L2_cache_stats_breakdown[GLOBAL_ACC_R][TOTAL_ACCESS] = 859032
	L2_cache_stats_breakdown[GLOBAL_ACC_W][TOTAL_ACCESS] = 285427
L2_total_cache_reservation_fail_breakdown:
	L2_cache_stats_fail_breakdown[GLOBAL_ACC_R][MSHR_ENRTY_FAIL] = 17095
L2_cache_data_port_util = 0.284
L2_cache_fill_port_util = 0.083

icnt_total_pkts_mem_to_simt=1142718
icnt_total_pkts_simt_to_mem=1155204
LD_mem_lat_dist  0 0 0 0 0 0 0 0 0 0 0 0 0 0 0 0 0 0 0 0 0 0 0 0 0 0 0
ST_mem_lat_dist  0 0 0 0 0 0 0 0 0 0 0 0 0 0 0 0 0 0 0 0 0 0 0 0 0 0 0
----------------------------Interconnect-DETAILS--------------------------------
Req_Network_injected_packets_num = 1155204
Req_Network_cycles = 39719
Req_Network_injected_packets_per_cycle =      29.0844 
Req_Network_conflicts_per_cycle =      31.5552
Req_Network_conflicts_per_cycle_util =      36.6613
Req_Bank_Level_Parallism =      33.6575
Req_Network_in_buffer_full_per_cycle =       0.0000
Req_Network_in_buffer_avg_util =      54.2521
Req_Network_out_buffer_full_per_cycle =       0.0018
Req_Network_out_buffer_avg_util =       6.8802

Reply_Network_injected_packets_num = 1142828
Reply_Network_cycles = 39719
Reply_Network_injected_packets_per_cycle =       28.7728
Reply_Network_conflicts_per_cycle =       12.5980
Reply_Network_conflicts_per_cycle_util =      14.7927
Reply_Bank_Level_Parallism =      33.7833
Reply_Network_in_buffer_full_per_cycle =       0.0000
Reply_Network_in_buffer_avg_util =       5.4026
Reply_Network_out_buffer_full_per_cycle =       0.0000
Reply_Network_out_buffer_avg_util =       0.3596
----------------------------END-of-Interconnect-DETAILS-------------------------


gpgpu_simulation_time = 0 days, 0 hrs, 8 min, 29 sec (509 sec)
gpgpu_simulation_rate = 165404 (inst/sec)
gpgpu_simulation_rate = 78 (cycle/sec)
gpgpu_silicon_slowdown = 14512820x
GPGPU-Sim: *** simulation thread exiting ***
GPGPU-Sim: ** break due to reaching the maximum cycles (or instructions) **
GPGPU-Sim: *** exit detected ***
