

        *** GPGPU-Sim Simulator Version 4.0.0  [build gpgpu-sim_git-commit-ffe0a1a00e984ecce9bf36e17ab94c4de0de8108_modified_0.0] ***


GPGPU-Sim PTX: simulation mode 0 (can change with PTX_SIM_MODE_FUNC environment variable:
               1=functional simulation only, 0=detailed performance simulator)
GPGPU-Sim PTX: overriding embedded ptx with ptx file (PTX_SIM_USE_PTX_FILE is set)
GPGPU-Sim: Configuration options:

-save_embedded_ptx                      0 # saves ptx files embedded in binary as <n>.ptx
-keep                                   0 # keep intermediate files created by GPGPU-Sim when interfacing with external programs
-gpgpu_ptx_save_converted_ptxplus                    0 # Saved converted ptxplus to a file
-gpgpu_occupancy_sm_number                   70 # The SM number to pass to ptxas when getting register usage for computing GPU occupancy. This parameter is required in the config.
-ptx_opcode_latency_int      4,13,4,5,145,21 # Opcode latencies for integers <ADD,MAX,MUL,MAD,DIV,SHFL>Default 1,1,19,25,145,32
-ptx_opcode_latency_fp          4,13,4,5,39 # Opcode latencies for single precision floating points <ADD,MAX,MUL,MAD,DIV>Default 1,1,1,1,30
-ptx_opcode_latency_dp         8,19,8,8,330 # Opcode latencies for double precision floating points <ADD,MAX,MUL,MAD,DIV>Default 8,8,8,8,335
-ptx_opcode_latency_sfu                  100 # Opcode latencies for SFU instructionsDefault 8
-ptx_opcode_latency_tesnor                   64 # Opcode latencies for Tensor instructionsDefault 64
-ptx_opcode_initiation_int          2,2,2,2,8,4 # Opcode initiation intervals for integers <ADD,MAX,MUL,MAD,DIV,SHFL>Default 1,1,4,4,32,4
-ptx_opcode_initiation_fp            2,2,2,2,4 # Opcode initiation intervals for single precision floating points <ADD,MAX,MUL,MAD,DIV>Default 1,1,1,1,5
-ptx_opcode_initiation_dp          4,4,4,4,130 # Opcode initiation intervals for double precision floating points <ADD,MAX,MUL,MAD,DIV>Default 8,8,8,8,130
-ptx_opcode_initiation_sfu                    8 # Opcode initiation intervals for sfu instructionsDefault 8
-ptx_opcode_initiation_tensor                   64 # Opcode initiation intervals for tensor instructionsDefault 64
-cdp_latency         7200,8000,100,12000,1600 # CDP API latency <cudaStreamCreateWithFlags, cudaGetParameterBufferV2_init_perWarp, cudaGetParameterBufferV2_perKernel, cudaLaunchDeviceV2_init_perWarp, cudaLaunchDevicV2_perKernel>Default 7200,8000,100,12000,1600
-network_mode                           2 # Interconnection network mode
-inter_config_file                   mesh # Interconnection network config file
-icnt_in_buffer_limit                  512 # in_buffer_limit
-icnt_out_buffer_limit                  512 # out_buffer_limit
-icnt_subnets                           2 # subnets
-icnt_arbiter_algo                      1 # arbiter_algo
-icnt_verbose                           0 # inct_verbose
-icnt_grant_cycles                      1 # grant_cycles
-gpgpu_ptx_use_cuobjdump                    1 # Use cuobjdump to extract ptx and sass from binaries
-gpgpu_experimental_lib_support                    0 # Try to extract code from cuda libraries [Broken because of unknown cudaGetExportTable]
-checkpoint_option                      0 #  checkpointing flag (0 = no checkpoint)
-checkpoint_kernel                      1 #  checkpointing during execution of which kernel (1- 1st kernel)
-checkpoint_CTA                         0 #  checkpointing after # of CTA (< less than total CTA)
-resume_option                          0 #  resume flag (0 = no resume)
-resume_kernel                          0 #  Resume from which kernel (1= 1st kernel)
-resume_CTA                             0 #  resume from which CTA 
-checkpoint_CTA_t                       0 #  resume from which CTA 
-checkpoint_insn_Y                      0 #  resume from which CTA 
-gpgpu_ptx_convert_to_ptxplus                    0 # Convert SASS (native ISA) to ptxplus and run ptxplus
-gpgpu_ptx_force_max_capability                   70 # Force maximum compute capability
-gpgpu_ptx_inst_debug_to_file                    0 # Dump executed instructions' debug information to file
-gpgpu_ptx_inst_debug_file       inst_debug.txt # Executed instructions' debug output file
-gpgpu_ptx_inst_debug_thread_uid                    1 # Thread UID for executed instructions' debug output
-gpgpu_n_mem_for_l2wb_pcommit                   32 # number of memory modules (e.g. memory controllers) in gpu
-gpgpu_n_sub_partition_per_mchannel_for_l2wb_pcommit                    2 # number of memory subpartition in each memory module
-gpgpu_dl2_bsize_for_l2wb_pcommit                  128 # default 128 bytes
-gpgpu_simd_model                       1 # 1 = post-dominator
-gpgpu_shader_core_pipeline              2048:32 # shader core pipeline config, i.e., {<nthread>:<warpsize>}
-gpgpu_tex_cache:l1  N:4:128:256,L:R:m:N:L,T:512:8,128:2 # per-shader L1 texture cache  (READ-ONLY) config  {<nsets>:<bsize>:<assoc>,<rep>:<wr>:<alloc>:<wr_alloc>,<mshr>:<N>:<merge>,<mq>:<rf>}
-gpgpu_const_cache:l1 N:128:64:8,L:R:f:N:L,S:2:64,4 # per-shader L1 constant memory cache  (READ-ONLY) config  {<nsets>:<bsize>:<assoc>,<rep>:<wr>:<alloc>:<wr_alloc>,<mshr>:<N>:<merge>,<mq>} 
-gpgpu_cache:il1     N:64:128:16,L:R:f:N:L,S:2:48,4 # shader L1 instruction cache config  {<nsets>:<bsize>:<assoc>,<rep>:<wr>:<alloc>:<wr_alloc>,<mshr>:<N>:<merge>,<mq>} 
-gpgpu_cache:dl1     S:1:128:256,L:L:s:N:L,A:256:8,16:0,32 # per-shader L1 data cache config  {<nsets>:<bsize>:<assoc>,<rep>:<wr>:<alloc>:<wr_alloc>,<mshr>:<N>:<merge>,<mq> | none}
-gpgpu_l1_banks                         4 # The number of L1 cache banks
-gpgpu_l1_banks_byte_interleaving                   32 # l1 banks byte interleaving granularity
-gpgpu_l1_banks_hashing_function                    0 # l1 banks hashing function
-gpgpu_l1_latency                      20 # L1 Hit Latency
-gpgpu_smem_latency                    20 # smem Latency
-gpgpu_cache:dl1PrefL1                 none # per-shader L1 data cache config  {<nsets>:<bsize>:<assoc>,<rep>:<wr>:<alloc>:<wr_alloc>,<mshr>:<N>:<merge>,<mq> | none}
-gpgpu_cache:dl1PrefShared                 none # per-shader L1 data cache config  {<nsets>:<bsize>:<assoc>,<rep>:<wr>:<alloc>:<wr_alloc>,<mshr>:<N>:<merge>,<mq> | none}
-gpgpu_gmem_skip_L1D                    0 # global memory access skip L1D cache (implements -Xptxas -dlcm=cg, default=no skip)
-gpgpu_perfect_mem                      0 # enable perfect memory mode (no cache miss)
-n_regfile_gating_group                    4 # group of lanes that should be read/written together)
-gpgpu_clock_gated_reg_file                    0 # enable clock gated reg file for power calculations
-gpgpu_clock_gated_lanes                    0 # enable clock gated lanes for power calculations
-gpgpu_shader_registers                65536 # Number of registers per shader core. Limits number of concurrent CTAs. (default 8192)
-gpgpu_registers_per_block                65536 # Maximum number of registers per CTA. (default 8192)
-gpgpu_ignore_resources_limitation                    0 # gpgpu_ignore_resources_limitation (default 0)
-gpgpu_shader_cta                      32 # Maximum number of concurrent CTAs in shader (default 8)
-gpgpu_num_cta_barriers                   16 # Maximum number of named barriers per CTA (default 16)
-gpgpu_n_clusters                      80 # number of processing clusters
-gpgpu_n_cores_per_cluster                    1 # number of simd cores per cluster
-gpgpu_n_cluster_ejection_buffer_size                   32 # number of packets in ejection buffer
-gpgpu_n_ldst_response_buffer_size                    2 # number of response packets in ld/st unit ejection buffer
-gpgpu_shmem_per_block                65536 # Size of shared memory per thread block or CTA (default 48kB)
-gpgpu_shmem_size                   98304 # Size of shared memory per shader core (default 16kB)
-gpgpu_adaptive_cache_config            536870913 # adaptive_cache_config
-gpgpu_shmem_sizeDefault                98304 # Size of shared memory per shader core (default 16kB)
-gpgpu_shmem_size_PrefL1                16384 # Size of shared memory per shader core (default 16kB)
-gpgpu_shmem_size_PrefShared                16384 # Size of shared memory per shader core (default 16kB)
-gpgpu_shmem_num_banks                   32 # Number of banks in the shared memory in each shader core (default 16)
-gpgpu_shmem_limited_broadcast                    0 # Limit shared memory to do one broadcast per cycle (default on)
-gpgpu_shmem_warp_parts                    1 # Number of portions a warp is divided into for shared memory bank conflict check 
-gpgpu_mem_unit_ports                    1 # The number of memory transactions allowed per core cycle
-gpgpu_shmem_warp_parts                    1 # Number of portions a warp is divided into for shared memory bank conflict check 
-gpgpu_warpdistro_shader                   -1 # Specify which shader core to collect the warp size distribution from
-gpgpu_warp_issue_shader                    0 # Specify which shader core to collect the warp issue distribution from
-gpgpu_local_mem_map                    1 # Mapping from local memory space address to simulated GPU physical address space (default = enabled)
-gpgpu_num_reg_banks                   16 # Number of register banks (default = 8)
-gpgpu_reg_bank_use_warp_id                    0 # Use warp ID in mapping registers to banks (default = off)
-gpgpu_sub_core_model                    1 # Sub Core Volta/Pascal model (default = off)
-gpgpu_enable_specialized_operand_collector                    0 # enable_specialized_operand_collector
-gpgpu_operand_collector_num_units_sp                    4 # number of collector units (default = 4)
-gpgpu_operand_collector_num_units_dp                    0 # number of collector units (default = 0)
-gpgpu_operand_collector_num_units_sfu                    4 # number of collector units (default = 4)
-gpgpu_operand_collector_num_units_int                    0 # number of collector units (default = 0)
-gpgpu_operand_collector_num_units_tensor_core                    4 # number of collector units (default = 4)
-gpgpu_operand_collector_num_units_mem                    2 # number of collector units (default = 2)
-gpgpu_operand_collector_num_units_gen                    8 # number of collector units (default = 0)
-gpgpu_operand_collector_num_in_ports_sp                    1 # number of collector unit in ports (default = 1)
-gpgpu_operand_collector_num_in_ports_dp                    0 # number of collector unit in ports (default = 0)
-gpgpu_operand_collector_num_in_ports_sfu                    1 # number of collector unit in ports (default = 1)
-gpgpu_operand_collector_num_in_ports_int                    0 # number of collector unit in ports (default = 0)
-gpgpu_operand_collector_num_in_ports_tensor_core                    1 # number of collector unit in ports (default = 1)
-gpgpu_operand_collector_num_in_ports_mem                    1 # number of collector unit in ports (default = 1)
-gpgpu_operand_collector_num_in_ports_gen                    8 # number of collector unit in ports (default = 0)
-gpgpu_operand_collector_num_out_ports_sp                    1 # number of collector unit in ports (default = 1)
-gpgpu_operand_collector_num_out_ports_dp                    0 # number of collector unit in ports (default = 0)
-gpgpu_operand_collector_num_out_ports_sfu                    1 # number of collector unit in ports (default = 1)
-gpgpu_operand_collector_num_out_ports_int                    0 # number of collector unit in ports (default = 0)
-gpgpu_operand_collector_num_out_ports_tensor_core                    1 # number of collector unit in ports (default = 1)
-gpgpu_operand_collector_num_out_ports_mem                    1 # number of collector unit in ports (default = 1)
-gpgpu_operand_collector_num_out_ports_gen                    8 # number of collector unit in ports (default = 0)
-gpgpu_coalesce_arch                   60 # Coalescing arch (GT200 = 13, Fermi = 20)
-gpgpu_num_sched_per_core                    4 # Number of warp schedulers per core
-gpgpu_max_insn_issue_per_warp                    1 # Max number of instructions that can be issued per warp in one cycle by scheduler (either 1 or 2)
-gpgpu_dual_issue_diff_exec_units                    1 # should dual issue use two different execution unit resources (Default = 1)
-gpgpu_simt_core_sim_order                    1 # Select the simulation order of cores in a cluster (0=Fix, 1=Round-Robin)
-gpgpu_pipeline_widths 4,4,4,4,4,4,4,4,4,4,8,4,4 # Pipeline widths ID_OC_SP,ID_OC_DP,ID_OC_INT,ID_OC_SFU,ID_OC_MEM,OC_EX_SP,OC_EX_DP,OC_EX_INT,OC_EX_SFU,OC_EX_MEM,EX_WB,ID_OC_TENSOR_CORE,OC_EX_TENSOR_CORE
-gpgpu_tensor_core_avail                    1 # Tensor Core Available (default=0)
-gpgpu_num_sp_units                     4 # Number of SP units (default=1)
-gpgpu_num_dp_units                     4 # Number of DP units (default=0)
-gpgpu_num_int_units                    4 # Number of INT units (default=0)
-gpgpu_num_sfu_units                    4 # Number of SF units (default=1)
-gpgpu_num_tensor_core_units                    4 # Number of tensor_core units (default=1)
-gpgpu_num_mem_units                    1 # Number if ldst units (default=1) WARNING: not hooked up to anything
-gpgpu_scheduler                      gto # Scheduler configuration: < lrr | gto | two_level_active > If two_level_active:<num_active_warps>:<inner_prioritization>:<outer_prioritization>For complete list of prioritization values see shader.h enum scheduler_prioritization_typeDefault: gto
-gpgpu_concurrent_kernel_sm                    0 # Support concurrent kernels on a SM (default = disabled)
-gpgpu_perfect_inst_const_cache                    1 # perfect inst and const cache mode, so all inst and const hits in the cache(default = disabled)
-gpgpu_inst_fetch_throughput                    4 # the number of fetched intruction per warp each cycle
-gpgpu_reg_file_port_throughput                    2 # the number ports of the register file
-specialized_unit_1         0,4,4,4,4,BRA # specialized unit config {<enabled>,<num_units>:<latency>:<initiation>,<ID_OC_SPEC>:<OC_EX_SPEC>,<NAME>}
-specialized_unit_2         0,4,4,4,4,BRA # specialized unit config {<enabled>,<num_units>:<latency>:<initiation>,<ID_OC_SPEC>:<OC_EX_SPEC>,<NAME>}
-specialized_unit_3         0,4,4,4,4,BRA # specialized unit config {<enabled>,<num_units>:<latency>:<initiation>,<ID_OC_SPEC>:<OC_EX_SPEC>,<NAME>}
-specialized_unit_4         0,4,4,4,4,BRA # specialized unit config {<enabled>,<num_units>:<latency>:<initiation>,<ID_OC_SPEC>:<OC_EX_SPEC>,<NAME>}
-specialized_unit_5         0,4,4,4,4,BRA # specialized unit config {<enabled>,<num_units>:<latency>:<initiation>,<ID_OC_SPEC>:<OC_EX_SPEC>,<NAME>}
-specialized_unit_6         0,4,4,4,4,BRA # specialized unit config {<enabled>,<num_units>:<latency>:<initiation>,<ID_OC_SPEC>:<OC_EX_SPEC>,<NAME>}
-specialized_unit_7         0,4,4,4,4,BRA # specialized unit config {<enabled>,<num_units>:<latency>:<initiation>,<ID_OC_SPEC>:<OC_EX_SPEC>,<NAME>}
-specialized_unit_8         0,4,4,4,4,BRA # specialized unit config {<enabled>,<num_units>:<latency>:<initiation>,<ID_OC_SPEC>:<OC_EX_SPEC>,<NAME>}
-gpgpu_perf_sim_memcpy                    1 # Fill the L2 cache on memcpy
-gpgpu_simple_dram_model                    0 # simple_dram_model with fixed latency and BW
-gpgpu_dram_scheduler                    1 # 0 = fifo, 1 = FR-FCFS (defaul)
-gpgpu_dram_partition_queues          64:64:64:64 # i2$:$2d:d2$:$2i
-l2_ideal                               0 # Use a ideal L2 cache that always hit
-gpgpu_cache:dl2     S:32:128:24,L:B:m:L:P,A:192:4,32:0,32 # unified banked L2 data cache config  {<nsets>:<bsize>:<assoc>,<rep>:<wr>:<alloc>:<wr_alloc>,<mshr>:<N>:<merge>,<mq>}
-gpgpu_cache:dl2_texture_only                    0 # L2 cache used for texture only
-gpgpu_n_mem                           32 # number of memory modules (e.g. memory controllers) in gpu
-gpgpu_n_sub_partition_per_mchannel                    2 # number of memory subpartition in each memory module
-gpgpu_n_mem_per_ctrlr                    1 # number of memory chips per memory controller
-gpgpu_memlatency_stat                   14 # track and display latency statistics 0x2 enables MC, 0x4 enables queue logs
-gpgpu_frfcfs_dram_sched_queue_size                   64 # 0 = unlimited (default); # entries per chip
-gpgpu_dram_return_queue_size                  192 # 0 = unlimited (default); # entries per chip
-gpgpu_dram_buswidth                   16 # default = 4 bytes (8 bytes per cycle at DDR)
-gpgpu_dram_burst_length                    2 # Burst length of each DRAM request (default = 4 data bus cycle)
-dram_data_command_freq_ratio                    2 # Frequency ratio between DRAM data bus and command bus (default = 2 times, i.e. DDR)
-gpgpu_dram_timing_opt nbk=16:CCD=1:RRD=3:RCD=12:RAS=28:RP=12:RC=40: CL=12:WL=2:CDLR=3:WR=10:nbkgrp=4:CCDL=2:RTPL=3 # DRAM timing parameters = {nbk:tCCD:tRRD:tRCD:tRAS:tRP:tRC:CL:WL:tCDLR:tWR:nbkgrp:tCCDL:tRTPL}
-gpgpu_l2_rop_latency                  160 # ROP queue latency (default 85)
-dram_latency                         200 # DRAM latency (default 30)
-dram_write_latency                   600 # DRAM write latency (default 100)
-dram_dual_bus_interface                    1 # dual_bus_interface (default = 0) 
-dram_bnk_indexing_policy                    0 # dram_bnk_indexing_policy (0 = normal indexing, 1 = Xoring with the higher bits) (Default = 0)
-dram_bnkgrp_indexing_policy                    1 # dram_bnkgrp_indexing_policy (0 = take higher bits, 1 = take lower bits) (Default = 0)
-dram_seperate_write_queue_enable                    0 # Seperate_Write_Queue_Enable
-dram_write_queue_size             32:28:16 # Write_Queue_Size
-dram_elimnate_rw_turnaround                    0 # elimnate_rw_turnaround i.e set tWTR and tRTW = 0
-icnt_flit_size                        40 # icnt_flit_size
-gpgpu_mem_addr_mapping dramid@8;00000000.00000000.00000000.00000000.0000RRRR.RRRRRRRR.RBBBCCCB.CCCSSSSS # mapping memory address to dram model {dramid@<start bit>;<memory address map>}
-gpgpu_mem_addr_test                    0 # run sweep test to check address mapping for aliased address
-gpgpu_mem_address_mask                    1 # 0 = old addressing mask, 1 = new addressing mask, 2 = new add. mask + flipped bank sel and chip sel bits
-gpgpu_memory_partition_indexing                    0 # 0 = no indexing, 1 = bitwise xoring, 2 = IPoly, 3 = custom indexing
-gpuwattch_xml_file         gpuwattch.xml # GPUWattch XML file
-power_simulation_enabled                    0 # Turn on power simulator (1=On, 0=Off)
-power_per_cycle_dump                    0 # Dump detailed power output each cycle
-power_trace_enabled                    0 # produce a file for the power trace (1=On, 0=Off)
-power_trace_zlevel                     6 # Compression level of the power trace output log (0=no comp, 9=highest)
-steady_power_levels_enabled                    0 # produce a file for the steady power levels (1=On, 0=Off)
-steady_state_definition                  8:4 # allowed deviation:number of samples
-gpgpu_max_cycle                        0 # terminates gpu simulation early (0 = no limit)
-gpgpu_max_insn                         0 # terminates gpu simulation early (0 = no limit)
-gpgpu_max_cta                          0 # terminates gpu simulation early (0 = no limit)
-gpgpu_max_completed_cta                 2048 # terminates gpu simulation early (0 = no limit)
-gpgpu_runtime_stat                   500 # display runtime statistics such as dram utilization {<freq>:<flag>}
-liveness_message_freq                    1 # Minimum number of seconds between simulation liveness messages (0 = always print)
-gpgpu_compute_capability_major                    7 # Major compute capability version number
-gpgpu_compute_capability_minor                    0 # Minor compute capability version number
-gpgpu_flush_l1_cache                    1 # Flush L1 cache at the end of each kernel call
-gpgpu_flush_l2_cache                    0 # Flush L2 cache at the end of each kernel call
-gpgpu_deadlock_detect                    1 # Stop the simulation at deadlock (1=on (default), 0=off)
-gpgpu_ptx_instruction_classification                    0 # if enabled will classify ptx instruction types per kernel (Max 255 kernels now)
-gpgpu_ptx_sim_mode                     0 # Select between Performance (default) or Functional simulation (1)
-gpgpu_clock_domains 1132.0:1132.0:1132.0:850.0 # Clock Domain Frequencies in MhZ {<Core Clock>:<ICNT Clock>:<L2 Clock>:<DRAM Clock>}
-gpgpu_max_concurrent_kernel                    8 # maximum kernels that can run concurrently on GPU
-gpgpu_cflog_interval                    0 # Interval between each snapshot in control flow logger
-visualizer_enabled               ef36522e2d45247004aa03edb85bd63f  /home/pli11/Videos/parboil_benchmark/parboil/benchmarks/stencil/build/nvm_default/stencil
Extracting PTX file and ptxas options    1: stencil.1.sm_70.ptx -arch=sm_70
      0 # Turn on visualizer output (1=On, 0=Off)
-visualizer_outputfile                 NULL # Specifies the output log file for visualizer
-visualizer_zlevel                      6 # Compression level of the visualizer output log (0=no comp, 9=highest)
-gpgpu_stack_size_limit                 1024 # GPU thread stack size
-gpgpu_heap_size_limit              8388608 # GPU malloc heap size 
-gpgpu_runtime_sync_depth_limit                    2 # GPU device runtime synchronize depth
-gpgpu_runtime_pending_launch_count_limit                 2048 # GPU device runtime pending launch count
-trace_enabled                          0 # Turn on traces
-trace_components                    none # comma seperated list of traces to enable. Complete list found in trace_streams.tup. Default none
-trace_sampling_core                    0 # The core which is printed using CORE_DPRINTF. Default 0
-trace_sampling_memory_partition                   -1 # The memory partition which is printed using MEMPART_DPRINTF. Default -1 (i.e. all)
-enable_ptx_file_line_stats                    1 # Turn on PTX source line statistic profiling. (1 = On)
-ptx_line_stats_filename gpgpu_inst_stats.txt # Output file for PTX source line statistics.
-gpgpu_kernel_launch_latency                 5000 # Kernel launch latency in cycles. Default: 0
-gpgpu_cdp_enabled                      0 # Turn on CDP
-gpgpu_TB_launch_latency                    0 # thread block launch latency in cycles. Default: 0
DRAM Timing Options:
nbk                                    16 # number of banks
CCD                                     1 # column to column delay
RRD                                     3 # minimal delay between activation of rows in different banks
RCD                                    12 # row to column delay
RAS                                    28 # time needed to activate row
RP                                     12 # time needed to precharge (deactivate) row
RC                                     40 # row cycle time
CDLR                                    3 # switching from write to read (changes tWTR)
WR                                     10 # last data-in to row precharge
CL                                     12 # CAS latency
WL                                      2 # Write latency
nbkgrp                                  4 # number of bank groups
CCDL                                    2 # column to column delay between accesses to different bank groups
RTPL                                    3 # read to precharge delay between accesses to different bank groups
Total number of memory sub partition = 64
addr_dec_mask[CHIP]  = 0000000000001f00 	high:13 low:8
addr_dec_mask[BK]    = 00000000000e2000 	high:20 low:13
addr_dec_mask[ROW]   = 00000001fff00000 	high:33 low:20
addr_dec_mask[COL]   = 000000000001c0ff 	high:17 low:0
addr_dec_mask[BURST] = 000000000000001f 	high:5 low:0
sub_partition_id_mask = 0000000000002000
GPGPU-Sim uArch: clock freqs: 1132000000.000000:1132000000.000000:1132000000.000000:850000000.000000
GPGPU-Sim uArch: clock periods: 0.00000000088339222615:0.00000000088339222615:0.00000000088339222615:0.00000000117647058824
*** Initializing Memory Statistics ***
GPGPU-Sim uArch: performance model initialization complete.
self exe links to: /home/pli11/Videos/parboil_benchmark/parboil/benchmarks/stencil/build/nvm_default/stencil
self exe links to: /home/pli11/Videos/parboil_benchmark/parboil/benchmarks/stencil/build/nvm_default/stencil
10.1
GPGPU-Sim PTX: __cudaRegisterFatBinary, fat_cubin_handle = 1, filename=default
self exe links to: /home/pli11/Videos/parboil_benchmark/parboil/benchmarks/stencil/build/nvm_default/stencil
Running md5sum using "md5sum /home/pli11/Videos/parboil_benchmark/parboil/benchmarks/stencil/build/nvm_default/stencil "
self exe links to: /home/pli11/Videos/parboil_benchmark/parboil/benchmarks/stencil/build/nvm_default/stencil
Extracting specific PTX file named stencil.1.sm_70.ptx 
GPGPU-Sim PTX: __cudaRegisterFunction _Z17naive_kernel_nvm5ffPfS_iii : hostFun 0x0x403527, fat_cubin_handle = 1
GPGPU-Sim PTX: Parsing stencil.1.sm_70.ptx
GPGPU-Sim PTX: allocating global region for "NVM_log" from 0x100 to 0x4000100 (global memory space)
GPGPU-Sim PTX: allocating global region for "NVM_flag" from 0x4000100 to 0x4400100 (global memory space)
GPGPU-Sim PTX: instruction assembly for function '_Z12naive_kernelffPfS_iii'...   done.
GPGPU-Sim PTX: instruction assembly for function '_Z17naive_kernel_nvmbffPfS_iii'...   done.
GPGPU-Sim PTX: instruction assembly for function '_Z17naive_kernel_nvmoffPfS_iii'...   done.
GPGPU-Sim PTX: instruction assembly for function '_Z17naive_kernel_nvmuffPfS_iii'...   done.
GPGPU-Sim PTX: instruction assembly for function '_Z17naive_kernel_nvm1ffPfS_iii'...   done.
GPGPU-Sim PTX: instruction assembly for function '_Z17naive_kernel_nvm2ffPfS_iii'...   done.
GPGPU-Sim PTX: instruction assembly for function '_Z17naive_kernel_nvmgffPfS_iii'...   done.
GPGPU-Sim PTX: instruction assembly for function '_Z17naive_kernel_nvm3ffPfS_iii'...   done.
GPGPU-Sim PTX: instruction assembly for function '_Z17naive_kernel_nvm4ffPfS_iii'...   done.
GPGPU-Sim PTX: instruction assembly for function '_Z17naive_kernel_nvmiffPfS_iii'...   done.
GPGPU-Sim PTX: instruction assembly for function '_Z17naive_kernel_nvm6ffPfS_iii'...   done.
GPGPU-Sim PTX: instruction assembly for function '_Z17naive_kernel_nvm5ffPfS_iii'...   done.
GPGPU-Sim PTX: finished parsing EMBEDDED .ptx file stencil.1.sm_70.ptx
GPGPU-Sim PTX: loading globals with explicit initializers... 
GPGPU-Sim PTX: finished loading globals (0 bytes total).
GPGPU-Sim PTX: loading constants with explicit initializers...  done.
GPGPU-Sim PTX: Loading PTXInfo from stencil.1.sm_70.ptx
GPGPU-Sim PTX: Kernel '_Z17naive_kernel_nvm5ffPfS_iii' : regs=21, lmem=0, smem=0, cmem=388
GPGPU-Sim PTX: Kernel '_Z17naive_kernel_nvm6ffPfS_iii' : regs=21, lmem=0, smem=0, cmem=388
GPGPU-Sim PTX: Kernel '_Z17naive_kernel_nvmiffPfS_iii' : regs=21, lmem=0, smem=0, cmem=388
GPGPU-Sim PTX: Kernel '_Z17naive_kernel_nvm4ffPfS_iii' : regs=23, lmem=0, smem=0, cmem=388
GPGPU-Sim PTX: Kernel '_Z17naive_kernel_nvm3ffPfS_iii' : regs=23, lmem=0, smem=0, cmem=388
GPGPU-Sim PTX: Kernel '_Z17naive_kernel_nvmgffPfS_iii' : regs=23, lmem=0, smem=0, cmem=388
GPGPU-Sim PTX: Kernel '_Z17naive_kernel_nvm2ffPfS_iii' : regs=22, lmem=0, smem=0, cmem=388
GPGPU-Sim PTX: Kernel '_Z17naive_kernel_nvm1ffPfS_iii' : regs=22, lmem=0, smem=0, cmem=388
GPGPU-Sim PTX: Kernel '_Z17naive_kernel_nvmuffPfS_iii' : regs=20, lmem=0, smem=0, cmem=388
GPGPU-Sim PTX: Kernel '_Z17naive_kernel_nvmoffPfS_iii' : regs=20, lmem=0, smem=0, cmem=388
GPGPU-Sim PTX: Kernel '_Z17naive_kernel_nvmbffPfS_iii' : regs=20, lmem=0, smem=0, cmem=388
GPGPU-Sim PTX: Kernel '_Z12naive_kernelffPfS_iii' : regs=20, lmem=0, smem=0, cmem=388
GPGPU-Sim PTX: __cudaRegisterFunction _Z17naive_kernel_nvm6ffPfS_iii : hostFun 0x0x40332e, fat_cubin_handle = 1
GPGPU-Sim PTX: __cudaRegisterFunction _Z17naive_kernel_nvmiffPfS_iii : hostFun 0x0x403135, fat_cubin_handle = 1
GPGPU-Sim PTX: __cudaRegisterFunction _Z17naive_kernel_nvm4ffPfS_iii : hostFun 0x0x402f3c, fat_cubin_handle = 1
GPGPU-Sim PTX: __cudaRegisterFunction _Z17naive_kernel_nvm3ffPfS_iii : hostFun 0x0x402d43, fat_cubin_handle = 1
GPGPU-Sim PTX: __cudaRegisterFunction _Z17naive_kernel_nvmgffPfS_iii : hostFun 0x0x402b4a, fat_cubin_handle = 1
GPGPU-Sim PTX: __cudaRegisterFunction _Z17naive_kernel_nvm2ffPfS_iii : hostFun 0x0x402951, fat_cubin_handle = 1
GPGPU-Sim PTX: __cudaRegisterFunction _Z17naive_kernel_nvm1ffPfS_iii : hostFun 0x0x402758, fat_cubin_handle = 1
GPGPU-Sim PTX: __cudaRegisterFunction _Z17naive_kernel_nvmuffPfS_iii : hostFun 0x0x40255f, fat_cubin_handle = 1
GPGPU-Sim PTX: __cudaRegisterFunction _Z17naive_kernel_nvmoffPfS_iii : hostFun 0x0x402366, fat_cubin_handle = 1
GPGPU-Sim PTX: __cudaRegisterFunction _Z17naive_kernel_nvmbffPfS_iii : hostFun 0x0x40216d, fat_cubin_handle = 1
GPGPU-Sim PTX: __cudaRegisterFunction _Z12naive_kernelffPfS_iii : hostFun 0x0x401f74, fat_cubin_handle = 1
GPGPU-Sim PTX: __cudaRegisterVar: hostVar = 0x6091c0; deviceAddress = NVM_log; deviceName = NVM_log
GPGPU-Sim PTX: __cudaRegisterVar: Registering const memory space of 67108864 bytes
GPGPU-Sim PTX registering global NVM_log hostVar to name mapping
GPGPU-Sim PTX: __cudaRegisterVar: hostVar = 0x46091c0; deviceAddress = NVM_flag; deviceName = NVM_flag
GPGPU-Sim PTX: __cudaRegisterVar: Registering const memory space of 4194304 bytes
GPGPU-Sim PTX registering global NVM_flag hostVar to name mapping
CUDA accelerated 7 points stencil codes****
Original version by Li-Wen Chang <lchang20@illinois.edu> and I-Jui Sung<sung10@illinois.edu>
This version maintained by Chris Rodrigues  ***********
GPGPU-Sim: synchronize waiting for inactive GPU simulation
GPGPU-Sim API: Stream Manager State
GPGPU-Sim: detected inactive GPU simulation thread
event update
GPGPU-Sim: synchronize waiting for inactive GPU simulation
GPGPU-Sim API: Stream Manager State
GPGPU-Sim: detected inactive GPU simulation thread
GPGPU-Sim PTX: Setting up arguments for 4 bytes starting at 0x7ffd4d9b50bc..
GPGPU-Sim PTX: Setting up arguments for 4 bytes starting at 0x7ffd4d9b50b8..
GPGPU-Sim PTX: Setting up arguments for 8 bytes starting at 0x7ffd4d9b50b0..
GPGPU-Sim PTX: Setting up arguments for 8 bytes starting at 0x7ffd4d9b50a8..
GPGPU-Sim PTX: Setting up arguments for 4 bytes starting at 0x7ffd4d9b50a4..
GPGPU-Sim PTX: Setting up arguments for 4 bytes starting at 0x7ffd4d9b50a0..
GPGPU-Sim PTX: Setting up arguments for 4 bytes starting at 0x7ffd4d9b509c..

GPGPU-Sim PTX: cudaLaunch for 0x0x40255f (mode=performance simulation) on stream 0
GPGPU-Sim PTX: finding reconvergence points for '_Z17naive_kernel_nvmuffPfS_iii'...
GPGPU-Sim PTX: Finding dominators for '_Z17naive_kernel_nvmuffPfS_iii'...
GPGPU-Sim PTX: Finding immediate dominators for '_Z17naive_kernel_nvmuffPfS_iii'...
GPGPU-Sim PTX: Finding postdominators for '_Z17naive_kernel_nvmuffPfS_iii'...
GPGPU-Sim PTX: Finding immediate postdominators for '_Z17naive_kernel_nvmuffPfS_iii'...
GPGPU-Sim PTX: pre-decoding instructions for '_Z17naive_kernel_nvmuffPfS_iii'...
GPGPU-Sim PTX: reconvergence points for _Z17naive_kernel_nvmuffPfS_iii...
GPGPU-Sim PTX:  1 (potential) branch divergence @  PC=0x588 (stencil.1.sm_70.ptx:284) @%p1 bra BB3_2;
GPGPU-Sim PTX:    immediate post dominator      @  PC=0x738 (stencil.1.sm_70.ptx:349) ret;
GPGPU-Sim PTX: ... end of reconvergence points for _Z17naive_kernel_nvmuffPfS_iii
GPGPU-Sim PTX: ... done pre-decoding instructions for '_Z17naive_kernel_nvmuffPfS_iii'.
GPGPU-Sim PTX: pushing kernel '_Z17naive_kernel_nvmuffPfS_iii' to stream 0, gridDim= (510,62,1) blockDim = (511,1,1) 
GPGPU-Sim uArch: Shader 0 bind to kernel 1 '_Z17naive_kernel_nvmuffPfS_iii'
GPGPU-Sim uArch: CTA/core = 4, limited by: threads
GPGPU-Sim: Reconfigure L1 cache to 128KB
GPGPU-Sim uArch: Shader 1 bind to kernel 1 '_Z17naive_kernel_nvmuffPfS_iii'
GPGPU-Sim uArch: Shader 2 bind to kernel 1 '_Z17naive_kernel_nvmuffPfS_iii'
GPGPU-Sim uArch: Shader 3 bind to kernel 1 '_Z17naive_kernel_nvmuffPfS_iii'
GPGPU-Sim uArch: Shader 4 bind to kernel 1 '_Z17naive_kernel_nvmuffPfS_iii'
GPGPU-Sim uArch: Shader 5 bind to kernel 1 '_Z17naive_kernel_nvmuffPfS_iii'
GPGPU-Sim uArch: Shader 6 bind to kernel 1 '_Z17naive_kernel_nvmuffPfS_iii'
GPGPU-Sim uArch: Shader 7 bind to kernel 1 '_Z17naive_kernel_nvmuffPfS_iii'
GPGPU-Sim uArch: Shader 8 bind to kernel 1 '_Z17naive_kernel_nvmuffPfS_iii'
GPGPU-Sim uArch: Shader 9 bind to kernel 1 '_Z17naive_kernel_nvmuffPfS_iii'
GPGPU-Sim uArch: Shader 10 bind to kernel 1 '_Z17naive_kernel_nvmuffPfS_iii'
GPGPU-Sim uArch: Shader 11 bind to kernel 1 '_Z17naive_kernel_nvmuffPfS_iii'
GPGPU-Sim uArch: Shader 12 bind to kernel 1 '_Z17naive_kernel_nvmuffPfS_iii'
GPGPU-Sim uArch: Shader 13 bind to kernel 1 '_Z17naive_kernel_nvmuffPfS_iii'
GPGPU-Sim uArch: Shader 14 bind to kernel 1 '_Z17naive_kernel_nvmuffPfS_iii'
GPGPU-Sim uArch: Shader 15 bind to kernel 1 '_Z17naive_kernel_nvmuffPfS_iii'
GPGPU-Sim uArch: Shader 16 bind to kernel 1 '_Z17naive_kernel_nvmuffPfS_iii'
GPGPU-Sim uArch: Shader 17 bind to kernel 1 '_Z17naive_kernel_nvmuffPfS_iii'
GPGPU-Sim uArch: Shader 18 bind to kernel 1 '_Z17naive_kernel_nvmuffPfS_iii'
GPGPU-Sim uArch: Shader 19 bind to kernel 1 '_Z17naive_kernel_nvmuffPfS_iii'
GPGPU-Sim uArch: Shader 20 bind to kernel 1 '_Z17naive_kernel_nvmuffPfS_iii'
GPGPU-Sim uArch: Shader 21 bind to kernel 1 '_Z17naive_kernel_nvmuffPfS_iii'
GPGPU-Sim uArch: Shader 22 bind to kernel 1 '_Z17naive_kernel_nvmuffPfS_iii'
GPGPU-Sim uArch: Shader 23 bind to kernel 1 '_Z17naive_kernel_nvmuffPfS_iii'
GPGPU-Sim uArch: Shader 24 bind to kernel 1 '_Z17naive_kernel_nvmuffPfS_iii'
GPGPU-Sim uArch: Shader 25 bind to kernel 1 '_Z17naive_kernel_nvmuffPfS_iii'
GPGPU-Sim uArch: Shader 26 bind to kernel 1 '_Z17naive_kernel_nvmuffPfS_iii'
GPGPU-Sim uArch: Shader 27 bind to kernel 1 '_Z17naive_kernel_nvmuffPfS_iii'
GPGPU-Sim uArch: Shader 28 bind to kernel 1 '_Z17naive_kernel_nvmuffPfS_iii'
GPGPU-Sim uArch: Shader 29 bind to kernel 1 '_Z17naive_kernel_nvmuffPfS_iii'
GPGPU-Sim uArch: Shader 30 bind to kernel 1 '_Z17naive_kernel_nvmuffPfS_iii'
GPGPU-Sim uArch: Shader 31 bind to kernel 1 '_Z17naive_kernel_nvmuffPfS_iii'
GPGPU-Sim uArch: Shader 32 bind to kernel 1 '_Z17naive_kernel_nvmuffPfS_iii'
GPGPU-Sim uArch: Shader 33 bind to kernel 1 '_Z17naive_kernel_nvmuffPfS_iii'
GPGPU-Sim uArch: Shader 34 bind to kernel 1 '_Z17naive_kernel_nvmuffPfS_iii'
GPGPU-Sim uArch: Shader 35 bind to kernel 1 '_Z17naive_kernel_nvmuffPfS_iii'
GPGPU-Sim uArch: Shader 36 bind to kernel 1 '_Z17naive_kernel_nvmuffPfS_iii'
GPGPU-Sim uArch: Shader 37 bind to kernel 1 '_Z17naive_kernel_nvmuffPfS_iii'
GPGPU-Sim uArch: Shader 38 bind to kernel 1 '_Z17naive_kernel_nvmuffPfS_iii'
GPGPU-Sim uArch: Shader 39 bind to kernel 1 '_Z17naive_kernel_nvmuffPfS_iii'
GPGPU-Sim uArch: Shader 40 bind to kernel 1 '_Z17naive_kernel_nvmuffPfS_iii'
GPGPU-Sim uArch: Shader 41 bind to kernel 1 '_Z17naive_kernel_nvmuffPfS_iii'
GPGPU-Sim uArch: Shader 42 bind to kernel 1 '_Z17naive_kernel_nvmuffPfS_iii'
GPGPU-Sim uArch: Shader 43 bind to kernel 1 '_Z17naive_kernel_nvmuffPfS_iii'
GPGPU-Sim uArch: Shader 44 bind to kernel 1 '_Z17naive_kernel_nvmuffPfS_iii'
GPGPU-Sim uArch: Shader 45 bind to kernel 1 '_Z17naive_kernel_nvmuffPfS_iii'
GPGPU-Sim uArch: Shader 46 bind to kernel 1 '_Z17naive_kernel_nvmuffPfS_iii'
GPGPU-Sim uArch: Shader 47 bind to kernel 1 '_Z17naive_kernel_nvmuffPfS_iii'
GPGPU-Sim uArch: Shader 48 bind to kernel 1 '_Z17naive_kernel_nvmuffPfS_iii'
GPGPU-Sim uArch: Shader 49 bind to kernel 1 '_Z17naive_kernel_nvmuffPfS_iii'
GPGPU-Sim uArch: Shader 50 bind to kernel 1 '_Z17naive_kernel_nvmuffPfS_iii'
GPGPU-Sim uArch: Shader 51 bind to kernel 1 '_Z17naive_kernel_nvmuffPfS_iii'
GPGPU-Sim uArch: Shader 52 bind to kernel 1 '_Z17naive_kernel_nvmuffPfS_iii'
GPGPU-Sim uArch: Shader 53 bind to kernel 1 '_Z17naive_kernel_nvmuffPfS_iii'
GPGPU-Sim uArch: Shader 54 bind to kernel 1 '_Z17naive_kernel_nvmuffPfS_iii'
GPGPU-Sim uArch: Shader 55 bind to kernel 1 '_Z17naive_kernel_nvmuffPfS_iii'
GPGPU-Sim uArch: Shader 56 bind to kernel 1 '_Z17naive_kernel_nvmuffPfS_iii'
GPGPU-Sim uArch: Shader 57 bind to kernel 1 '_Z17naive_kernel_nvmuffPfS_iii'
GPGPU-Sim uArch: Shader 58 bind to kernel 1 '_Z17naive_kernel_nvmuffPfS_iii'
GPGPU-Sim uArch: Shader 59 bind to kernel 1 '_Z17naive_kernel_nvmuffPfS_iii'
GPGPU-Sim uArch: Shader 60 bind to kernel 1 '_Z17naive_kernel_nvmuffPfS_iii'
GPGPU-Sim uArch: Shader 61 bind to kernel 1 '_Z17naive_kernel_nvmuffPfS_iii'
GPGPU-Sim uArch: Shader 62 bind to kernel 1 '_Z17naive_kernel_nvmuffPfS_iii'
GPGPU-Sim uArch: Shader 63 bind to kernel 1 '_Z17naive_kernel_nvmuffPfS_iii'
GPGPU-Sim uArch: Shader 64 bind to kernel 1 '_Z17naive_kernel_nvmuffPfS_iii'
GPGPU-Sim uArch: Shader 65 bind to kernel 1 '_Z17naive_kernel_nvmuffPfS_iii'
GPGPU-Sim uArch: Shader 66 bind to kernel 1 '_Z17naive_kernel_nvmuffPfS_iii'
GPGPU-Sim uArch: Shader 67 bind to kernel 1 '_Z17naive_kernel_nvmuffPfS_iii'
GPGPU-Sim uArch: Shader 68 bind to kernel 1 '_Z17naive_kernel_nvmuffPfS_iii'
GPGPU-Sim uArch: Shader 69 bind to kernel 1 '_Z17naive_kernel_nvmuffPfS_iii'
GPGPU-Sim uArch: Shader 70 bind to kernel 1 '_Z17naive_kernel_nvmuffPfS_iii'
GPGPU-Sim uArch: Shader 71 bind to kernel 1 '_Z17naive_kernel_nvmuffPfS_iii'
GPGPU-Sim uArch: Shader 72 bind to kernel 1 '_Z17naive_kernel_nvmuffPfS_iii'
GPGPU-Sim uArch: Shader 73 bind to kernel 1 '_Z17naive_kernel_nvmuffPfS_iii'
GPGPU-Sim uArch: Shader 74 bind to kernel 1 '_Z17naive_kernel_nvmuffPfS_iii'
GPGPU-Sim uArch: Shader 75 bind to kernel 1 '_Z17naive_kernel_nvmuffPfS_iii'
GPGPU-Sim uArch: Shader 76 bind to kernel 1 '_Z17naive_kernel_nvmuffPfS_iii'
GPGPU-Sim uArch: Shader 77 bind to kernel 1 '_Z17naive_kernel_nvmuffPfS_iii'
GPGPU-Sim uArch: Shader 78 bind to kernel 1 '_Z17naive_kernel_nvmuffPfS_iii'
GPGPU-Sim uArch: Shader 79 bind to kernel 1 '_Z17naive_kernel_nvmuffPfS_iii'
kernel_name = _Z17naive_kernel_nvmuffPfS_iii 
kernel_launch_uid = 1 
gpu_sim_cycle = 188294
gpu_sim_insn = 72579384
gpu_ipc =     385.4578
gpu_tot_sim_cycle = 188294
gpu_tot_sim_insn = 72579384
gpu_tot_ipc =     385.4578
gpu_tot_issued_cta = 2368
gpu_occupancy = 78.8502% 
gpu_tot_occupancy = 78.8502% 
max_total_param_size = 0
gpu_stall_dramfull = 7243714
gpu_stall_icnt2sh    = 0
partiton_level_parallism =      17.8246
partiton_level_parallism_total  =      17.8246
partiton_level_parallism_util =      18.3834
partiton_level_parallism_util_total  =      18.3834
L2_BW  =     641.8884 GB/Sec
L2_BW_total  =     641.8884 GB/Sec
gpu_total_sim_rate=46946
############## bottleneck_stats #############
cycles: core 188294, icnt 188294, l2 188294, dram 141387
gpu_ipc	385.458
gpu_tot_issued_cta = 2368, average cycles = 80
n_dram_writes	 0, n_dram_reads	 0
n_GLOBAL_ACC_R	 215366 
n_LOCAL_ACC_R	 0 
n_CONST_ACC_R	 0 
n_TEXTURE_ACC_R	 0 
n_GLOBAL_ACC_W	 0 
n_LOCAL_ACC_W	 0 
n_L1_WRBK_ACC	 0 
n_L2_WRBK_ACC	 37139 
n_L1_WR_ALLOC_R	 0 
n_L2_WR_ALLOC_R	 0 

n_sm	 80, n_schedulers	 4
scheduler util	0.038	80
L1D data util	0.281	80	0.306	69
L1D tag util	0.095	80	0.109	15
L2 data util	0.130	64	0.132	44
L2 tag util	0.095	64	0.098	44
n_l2_access	 1142285
icnt s2m util	0.000	0	0.000	44	flits per packet: -nan
icnt m2s util	0.000	0	0.000	44	flits per packet: -nan
sum=0
n_mem	 32
dram util	0.073	32	0.074	5

latency_l1_hit:	3524260, num_l1_reqs:	175376
L1 hit latency:	20
latency_l2_hit:	1303557810, num_l2_reqs:	665555
L2 hit latency:	1958
latency_dram:	1250963240, num_dram_reqs:	476073
DRAM latency:	2627

n_reg	65536, n_smem	98304, n_thread	2048, n_tb	32
reg file	0.625
smem size	0.000
thread slot	1.000
TB slot    	0.125
L1I tag util	0.078	80	0.084	69

n_mem_pipe	1, n_sp_pipe	4, n_sfu_pipe	4
mem pipe util	0.044	80	0.047	69
sp pipe util	0.010	80	0.010	69
sfu pipe util	0.000	0	0.000	69
ldst mem cycle	0.158	80	0.168	77

smem port	0.000	0

n_reg_bank	16
reg port	0.023	16	0.028	6
L1D tag util	0.095	80	0.109	15
L1D fill util	0.057	80	0.063	69
n_l1d_mshr	4096
L1D mshr util	0.031	80
n_l1d_missq	16
L1D missq util	0.028	80
L1D hit rate	0.122
L1D miss rate	0.742
L1D rsfail rate	0.135
L2 tag util	0.095	64	0.098	44
L2 fill util	0.018	64	0.018	22
n_l2_mshr	192
n_l2_missq	32
L2 mshr util	0.070	64	0.072	5
L2 missq util	0.001	64	0.001	46
L2 hit rate	0.583
L2 miss rate	0.417
L2 rsfail rate	0.000

dram activity	0.169	32	0.179	5

load trans eff	0.935
load trans sz	32.000
load_useful_bytes 32832404, load_transaction_bytes 35124928, icnt_m2s_bytes 0
n_gmem_load_insns 257510, n_gmem_load_accesses 1097654
n_smem_access_insn 0, n_smem_accesses 0

tmp_counter/12	0.279

run 0.003, fetch 0.001, sync 0.353, control 0.000, data 0.626, struct 0.016
############ end_bottleneck_stats #############

========= Core cache stats =========
L1I_cache:
	L1I_total_cache_accesses = 0
	L1I_total_cache_misses = 0
	L1I_total_cache_pending_hits = 0
	L1I_total_cache_reservation_fails = 0
L1D_cache:
	L1D_cache_core[0]: Access = 15631, Miss = 13521, Miss_rate = 0.865, Pending_hits = 0, Reservation_fails = 2739
	L1D_cache_core[1]: Access = 15113, Miss = 12888, Miss_rate = 0.853, Pending_hits = 0, Reservation_fails = 2392
	L1D_cache_core[2]: Access = 16015, Miss = 13761, Miss_rate = 0.859, Pending_hits = 0, Reservation_fails = 1573
	L1D_cache_core[3]: Access = 15239, Miss = 13007, Miss_rate = 0.854, Pending_hits = 0, Reservation_fails = 2576
	L1D_cache_core[4]: Access = 15778, Miss = 13485, Miss_rate = 0.855, Pending_hits = 0, Reservation_fails = 3302
	L1D_cache_core[5]: Access = 15658, Miss = 13499, Miss_rate = 0.862, Pending_hits = 0, Reservation_fails = 2435
	L1D_cache_core[6]: Access = 15320, Miss = 13080, Miss_rate = 0.854, Pending_hits = 0, Reservation_fails = 1857
	L1D_cache_core[7]: Access = 15245, Miss = 13083, Miss_rate = 0.858, Pending_hits = 0, Reservation_fails = 3156
	L1D_cache_core[8]: Access = 15752, Miss = 13532, Miss_rate = 0.859, Pending_hits = 0, Reservation_fails = 1537
	L1D_cache_core[9]: Access = 15230, Miss = 13139, Miss_rate = 0.863, Pending_hits = 0, Reservation_fails = 2323
	L1D_cache_core[10]: Access = 15078, Miss = 12965, Miss_rate = 0.860, Pending_hits = 0, Reservation_fails = 2834
	L1D_cache_core[11]: Access = 15778, Miss = 13373, Miss_rate = 0.848, Pending_hits = 0, Reservation_fails = 3184
	L1D_cache_core[12]: Access = 15136, Miss = 12950, Miss_rate = 0.856, Pending_hits = 0, Reservation_fails = 2229
	L1D_cache_core[13]: Access = 15224, Miss = 13097, Miss_rate = 0.860, Pending_hits = 0, Reservation_fails = 1815
	L1D_cache_core[14]: Access = 15009, Miss = 12840, Miss_rate = 0.855, Pending_hits = 0, Reservation_fails = 2882
	L1D_cache_core[15]: Access = 15027, Miss = 12690, Miss_rate = 0.844, Pending_hits = 0, Reservation_fails = 5411
	L1D_cache_core[16]: Access = 14944, Miss = 12751, Miss_rate = 0.853, Pending_hits = 0, Reservation_fails = 2399
	L1D_cache_core[17]: Access = 15248, Miss = 13129, Miss_rate = 0.861, Pending_hits = 0, Reservation_fails = 879
	L1D_cache_core[18]: Access = 15205, Miss = 13060, Miss_rate = 0.859, Pending_hits = 0, Reservation_fails = 3419
	L1D_cache_core[19]: Access = 15127, Miss = 12854, Miss_rate = 0.850, Pending_hits = 0, Reservation_fails = 3414
	L1D_cache_core[20]: Access = 14874, Miss = 12770, Miss_rate = 0.859, Pending_hits = 0, Reservation_fails = 2899
	L1D_cache_core[21]: Access = 15106, Miss = 13039, Miss_rate = 0.863, Pending_hits = 0, Reservation_fails = 1437
	L1D_cache_core[22]: Access = 15182, Miss = 13174, Miss_rate = 0.868, Pending_hits = 0, Reservation_fails = 2414
	L1D_cache_core[23]: Access = 15667, Miss = 13400, Miss_rate = 0.855, Pending_hits = 0, Reservation_fails = 2092
	L1D_cache_core[24]: Access = 15582, Miss = 13392, Miss_rate = 0.859, Pending_hits = 0, Reservation_fails = 2381
	L1D_cache_core[25]: Access = 15152, Miss = 13008, Miss_rate = 0.859, Pending_hits = 0, Reservation_fails = 2441
	L1D_cache_core[26]: Access = 14994, Miss = 12825, Miss_rate = 0.855, Pending_hits = 0, Reservation_fails = 1722
	L1D_cache_core[27]: Access = 16278, Miss = 13932, Miss_rate = 0.856, Pending_hits = 0, Reservation_fails = 2279
	L1D_cache_core[28]: Access = 14994, Miss = 12863, Miss_rate = 0.858, Pending_hits = 0, Reservation_fails = 3774
	L1D_cache_core[29]: Access = 15783, Miss = 13577, Miss_rate = 0.860, Pending_hits = 0, Reservation_fails = 3687
	L1D_cache_core[30]: Access = 15519, Miss = 13337, Miss_rate = 0.859, Pending_hits = 0, Reservation_fails = 2649
	L1D_cache_core[31]: Access = 15680, Miss = 13541, Miss_rate = 0.864, Pending_hits = 0, Reservation_fails = 1481
	L1D_cache_core[32]: Access = 15588, Miss = 13493, Miss_rate = 0.866, Pending_hits = 0, Reservation_fails = 2249
	L1D_cache_core[33]: Access = 15754, Miss = 13437, Miss_rate = 0.853, Pending_hits = 0, Reservation_fails = 3159
	L1D_cache_core[34]: Access = 15352, Miss = 13217, Miss_rate = 0.861, Pending_hits = 0, Reservation_fails = 2450
	L1D_cache_core[35]: Access = 15840, Miss = 13675, Miss_rate = 0.863, Pending_hits = 0, Reservation_fails = 757
	L1D_cache_core[36]: Access = 15784, Miss = 13605, Miss_rate = 0.862, Pending_hits = 0, Reservation_fails = 1849
	L1D_cache_core[37]: Access = 15914, Miss = 13649, Miss_rate = 0.858, Pending_hits = 0, Reservation_fails = 1869
	L1D_cache_core[38]: Access = 15762, Miss = 13485, Miss_rate = 0.856, Pending_hits = 0, Reservation_fails = 1502
	L1D_cache_core[39]: Access = 15097, Miss = 12972, Miss_rate = 0.859, Pending_hits = 0, Reservation_fails = 2716
	L1D_cache_core[40]: Access = 15630, Miss = 13441, Miss_rate = 0.860, Pending_hits = 0, Reservation_fails = 1709
	L1D_cache_core[41]: Access = 14878, Miss = 12809, Miss_rate = 0.861, Pending_hits = 0, Reservation_fails = 2298
	L1D_cache_core[42]: Access = 15720, Miss = 13529, Miss_rate = 0.861, Pending_hits = 0, Reservation_fails = 2245
	L1D_cache_core[43]: Access = 15536, Miss = 13246, Miss_rate = 0.853, Pending_hits = 0, Reservation_fails = 2300
	L1D_cache_core[44]: Access = 15013, Miss = 12865, Miss_rate = 0.857, Pending_hits = 0, Reservation_fails = 3532
	L1D_cache_core[45]: Access = 15993, Miss = 13720, Miss_rate = 0.858, Pending_hits = 0, Reservation_fails = 1242
	L1D_cache_core[46]: Access = 15504, Miss = 13312, Miss_rate = 0.859, Pending_hits = 0, Reservation_fails = 1826
	L1D_cache_core[47]: Access = 15268, Miss = 13132, Miss_rate = 0.860, Pending_hits = 0, Reservation_fails = 2944
	L1D_cache_core[48]: Access = 15294, Miss = 13178, Miss_rate = 0.862, Pending_hits = 0, Reservation_fails = 2016
	L1D_cache_core[49]: Access = 14872, Miss = 12875, Miss_rate = 0.866, Pending_hits = 0, Reservation_fails = 1600
	L1D_cache_core[50]: Access = 15448, Miss = 13183, Miss_rate = 0.853, Pending_hits = 0, Reservation_fails = 2577
	L1D_cache_core[51]: Access = 15306, Miss = 13210, Miss_rate = 0.863, Pending_hits = 0, Reservation_fails = 3143
	L1D_cache_core[52]: Access = 15936, Miss = 13723, Miss_rate = 0.861, Pending_hits = 0, Reservation_fails = 2320
	L1D_cache_core[53]: Access = 15677, Miss = 13510, Miss_rate = 0.862, Pending_hits = 0, Reservation_fails = 2284
	L1D_cache_core[54]: Access = 15572, Miss = 13325, Miss_rate = 0.856, Pending_hits = 0, Reservation_fails = 3893
	L1D_cache_core[55]: Access = 14718, Miss = 12590, Miss_rate = 0.855, Pending_hits = 0, Reservation_fails = 1531
	L1D_cache_core[56]: Access = 15308, Miss = 13144, Miss_rate = 0.859, Pending_hits = 0, Reservation_fails = 1721
	L1D_cache_core[57]: Access = 14928, Miss = 12833, Miss_rate = 0.860, Pending_hits = 0, Reservation_fails = 1297
	L1D_cache_core[58]: Access = 15118, Miss = 12873, Miss_rate = 0.852, Pending_hits = 0, Reservation_fails = 1690
	L1D_cache_core[59]: Access = 15019, Miss = 12893, Miss_rate = 0.858, Pending_hits = 0, Reservation_fails = 3049
	L1D_cache_core[60]: Access = 15097, Miss = 12949, Miss_rate = 0.858, Pending_hits = 0, Reservation_fails = 4115
	L1D_cache_core[61]: Access = 16257, Miss = 14049, Miss_rate = 0.864, Pending_hits = 0, Reservation_fails = 1437
	L1D_cache_core[62]: Access = 15107, Miss = 12936, Miss_rate = 0.856, Pending_hits = 0, Reservation_fails = 5087
	L1D_cache_core[63]: Access = 15570, Miss = 13280, Miss_rate = 0.853, Pending_hits = 0, Reservation_fails = 2270
	L1D_cache_core[64]: Access = 15784, Miss = 13603, Miss_rate = 0.862, Pending_hits = 0, Reservation_fails = 2642
	L1D_cache_core[65]: Access = 15882, Miss = 13661, Miss_rate = 0.860, Pending_hits = 0, Reservation_fails = 2259
	L1D_cache_core[66]: Access = 14947, Miss = 12829, Miss_rate = 0.858, Pending_hits = 0, Reservation_fails = 1796
	L1D_cache_core[67]: Access = 15752, Miss = 13566, Miss_rate = 0.861, Pending_hits = 0, Reservation_fails = 4036
	L1D_cache_core[68]: Access = 15833, Miss = 13631, Miss_rate = 0.861, Pending_hits = 0, Reservation_fails = 1606
	L1D_cache_core[69]: Access = 16685, Miss = 14556, Miss_rate = 0.872, Pending_hits = 0, Reservation_fails = 1508
	L1D_cache_core[70]: Access = 16064, Miss = 13789, Miss_rate = 0.858, Pending_hits = 0, Reservation_fails = 1246
	L1D_cache_core[71]: Access = 15618, Miss = 13332, Miss_rate = 0.854, Pending_hits = 0, Reservation_fails = 2437
	L1D_cache_core[72]: Access = 16074, Miss = 13872, Miss_rate = 0.863, Pending_hits = 0, Reservation_fails = 2476
	L1D_cache_core[73]: Access = 15762, Miss = 13660, Miss_rate = 0.867, Pending_hits = 0, Reservation_fails = 3537
	L1D_cache_core[74]: Access = 15466, Miss = 13268, Miss_rate = 0.858, Pending_hits = 0, Reservation_fails = 1927
	L1D_cache_core[75]: Access = 15717, Miss = 13641, Miss_rate = 0.868, Pending_hits = 0, Reservation_fails = 2869
	L1D_cache_core[76]: Access = 15838, Miss = 13517, Miss_rate = 0.853, Pending_hits = 0, Reservation_fails = 3344
	L1D_cache_core[77]: Access = 16360, Miss = 13966, Miss_rate = 0.854, Pending_hits = 0, Reservation_fails = 1288
	L1D_cache_core[78]: Access = 16169, Miss = 13647, Miss_rate = 0.844, Pending_hits = 0, Reservation_fails = 2472
	L1D_cache_core[79]: Access = 15320, Miss = 13085, Miss_rate = 0.854, Pending_hits = 0, Reservation_fails = 2063
	L1D_total_cache_accesses = 1238699
	L1D_total_cache_misses = 1063323
	L1D_total_cache_miss_rate = 0.8584
	L1D_total_cache_pending_hits = 0
	L1D_total_cache_reservation_fails = 193795
	L1D_cache_data_port_util = 0.012
	L1D_cache_fill_port_util = 0.059
L1C_cache:
	L1C_total_cache_accesses = 0
	L1C_total_cache_misses = 0
	L1C_total_cache_pending_hits = 0
	L1C_total_cache_reservation_fails = 0
L1T_cache:
	L1T_total_cache_accesses = 0
	L1T_total_cache_misses = 0
	L1T_total_cache_pending_hits = 0
	L1T_total_cache_reservation_fails = 0

Total_core_cache_stats:
	Total_core_cache_stats_breakdown[GLOBAL_ACC_R][HIT] = 175376
	Total_core_cache_stats_breakdown[GLOBAL_ACC_R][HIT_RESERVED] = 0
	Total_core_cache_stats_breakdown[GLOBAL_ACC_R][MISS] = 788806
	Total_core_cache_stats_breakdown[GLOBAL_ACC_R][RESERVATION_FAIL] = 184062
	Total_core_cache_stats_breakdown[GLOBAL_ACC_R][SECTOR_MISS] = 133229
	Total_core_cache_stats_breakdown[LOCAL_ACC_R][HIT] = 0
	Total_core_cache_stats_breakdown[LOCAL_ACC_R][HIT_RESERVED] = 0
	Total_core_cache_stats_breakdown[LOCAL_ACC_R][MISS] = 0
	Total_core_cache_stats_breakdown[LOCAL_ACC_R][RESERVATION_FAIL] = 0
	Total_core_cache_stats_breakdown[LOCAL_ACC_R][SECTOR_MISS] = 0
	Total_core_cache_stats_breakdown[CONST_ACC_R][HIT] = 0
	Total_core_cache_stats_breakdown[CONST_ACC_R][HIT_RESERVED] = 0
	Total_core_cache_stats_breakdown[CONST_ACC_R][MISS] = 0
	Total_core_cache_stats_breakdown[CONST_ACC_R][RESERVATION_FAIL] = 0
	Total_core_cache_stats_breakdown[CONST_ACC_R][SECTOR_MISS] = 0
	Total_core_cache_stats_breakdown[TEXTURE_ACC_R][HIT] = 0
	Total_core_cache_stats_breakdown[TEXTURE_ACC_R][HIT_RESERVED] = 0
	Total_core_cache_stats_breakdown[TEXTURE_ACC_R][MISS] = 0
	Total_core_cache_stats_breakdown[TEXTURE_ACC_R][RESERVATION_FAIL] = 0
	Total_core_cache_stats_breakdown[TEXTURE_ACC_R][SECTOR_MISS] = 0
	Total_core_cache_stats_breakdown[GLOBAL_ACC_W][HIT] = 0
	Total_core_cache_stats_breakdown[GLOBAL_ACC_W][HIT_RESERVED] = 0
	Total_core_cache_stats_breakdown[GLOBAL_ACC_W][MISS] = 141288
	Total_core_cache_stats_breakdown[GLOBAL_ACC_W][RESERVATION_FAIL] = 9733
	Total_core_cache_stats_breakdown[GLOBAL_ACC_W][SECTOR_MISS] = 0
	Total_core_cache_stats_breakdown[LOCAL_ACC_W][HIT] = 0
	Total_core_cache_stats_breakdown[LOCAL_ACC_W][HIT_RESERVED] = 0
	Total_core_cache_stats_breakdown[LOCAL_ACC_W][MISS] = 0
	Total_core_cache_stats_breakdown[LOCAL_ACC_W][RESERVATION_FAIL] = 0
	Total_core_cache_stats_breakdown[LOCAL_ACC_W][SECTOR_MISS] = 0
	Total_core_cache_stats_breakdown[L1_WRBK_ACC][HIT] = 0
	Total_core_cache_stats_breakdown[L1_WRBK_ACC][HIT_RESERVED] = 0
	Total_core_cache_stats_breakdown[L1_WRBK_ACC][MISS] = 0
	Total_core_cache_stats_breakdown[L1_WRBK_ACC][RESERVATION_FAIL] = 0
	Total_core_cache_stats_breakdown[L1_WRBK_ACC][SECTOR_MISS] = 0
	Total_core_cache_stats_breakdown[L2_WRBK_ACC][HIT] = 0
	Total_core_cache_stats_breakdown[L2_WRBK_ACC][HIT_RESERVED] = 0
	Total_core_cache_stats_breakdown[L2_WRBK_ACC][MISS] = 0
	Total_core_cache_stats_breakdown[L2_WRBK_ACC][RESERVATION_FAIL] = 0
	Total_core_cache_stats_breakdown[L2_WRBK_ACC][SECTOR_MISS] = 0
	Total_core_cache_stats_breakdown[INST_ACC_R][HIT] = 0
	Total_core_cache_stats_breakdown[INST_ACC_R][HIT_RESERVED] = 0
	Total_core_cache_stats_breakdown[INST_ACC_R][MISS] = 0
	Total_core_cache_stats_breakdown[INST_ACC_R][RESERVATION_FAIL] = 0
	Total_core_cache_stats_breakdown[INST_ACC_R][SECTOR_MISS] = 0
	Total_core_cache_stats_breakdown[L1_WR_ALLOC_R][HIT] = 0
	Total_core_cache_stats_breakdown[L1_WR_ALLOC_R][HIT_RESERVED] = 0
	Total_core_cache_stats_breakdown[L1_WR_ALLOC_R][MISS] = 0
	Total_core_cache_stats_breakdown[L1_WR_ALLOC_R][RESERVATION_FAIL] = 0
	Total_core_cache_stats_breakdown[L1_WR_ALLOC_R][SECTOR_MISS] = 0
	Total_core_cache_stats_breakdown[L2_WR_ALLOC_R][HIT] = 0
	Total_core_cache_stats_breakdown[L2_WR_ALLOC_R][HIT_RESERVED] = 0
	Total_core_cache_stats_breakdown[L2_WR_ALLOC_R][MISS] = 0
	Total_core_cache_stats_breakdown[L2_WR_ALLOC_R][RESERVATION_FAIL] = 0
	Total_core_cache_stats_breakdown[L2_WR_ALLOC_R][SECTOR_MISS] = 0
	Total_core_cache_stats_breakdown[GLOBAL_ACC_R][TOTAL_ACCESS] = 1097411
	Total_core_cache_stats_breakdown[GLOBAL_ACC_W][TOTAL_ACCESS] = 141288

Total_core_cache_fail_stats:
	Total_core_cache_fail_stats_breakdown[GLOBAL_ACC_R][MISS_QUEUE_FULL] = 184062
	Total_core_cache_fail_stats_breakdown[GLOBAL_ACC_W][MISS_QUEUE_FULL] = 9733
Shader 0 warp_id issue ditsribution:
warp_id:
0, 1, 2, 3, 4, 5, 6, 7, 8, 9, 10, 11, 12, 13, 14, 15, 16, 17, 18, 19, 20, 21, 22, 23, 24, 25, 26, 27, 28, 29, 30, 31, 32, 33, 34, 35, 36, 37, 38, 39, 40, 41, 42, 43, 44, 45, 46, 47, 48, 49, 50, 51, 52, 53, 54, 55, 56, 57, 58, 59, 60, 61, 62, 63, 
distro:
485, 485, 485, 485, 487, 485, 485, 485, 485, 479, 485, 485, 485, 485, 485, 485, 441, 441, 440, 441, 440, 440, 436, 440, 441, 441, 441, 441, 440, 440, 440, 440, 466, 466, 466, 466, 466, 466, 466, 466, 466, 466, 466, 466, 466, 466, 466, 466, 441, 441, 441, 440, 427, 436, 440, 441, 440, 441, 436, 440, 441, 441, 427, 440, 
gpgpu_n_tot_thrd_icount = 74052416
gpgpu_n_tot_w_icount = 2314138
gpgpu_n_stall_shd_mem = 5713074
gpgpu_n_mem_read_local = 0
gpgpu_n_mem_write_local = 0
gpgpu_n_mem_read_global = 872292
gpgpu_n_mem_write_global = 2515522
gpgpu_n_mem_texture = 0
gpgpu_n_mem_const = 0
gpgpu_n_load_insn  = 8207302
gpgpu_n_store_insn = 3364380
gpgpu_n_shmem_insn = 0
gpgpu_n_sstarr_insn = 0
gpgpu_n_tex_insn = 0
gpgpu_n_const_mem_insn = 0
gpgpu_n_param_mem_insn = 7255244
gpgpu_n_shmem_bkconflict = 0
gpgpu_n_cache_bkconflict = 0
gpgpu_n_intrawarp_mshr_merge = 0
gpgpu_n_cmem_portconflict = 0
gpgpu_stall_shd_mem[c_mem][resource_stall] = 0
gpgpu_stall_shd_mem[s_mem][bk_conf] = 0
gpgpu_stall_shd_mem[gl_mem][resource_stall] = 1062571
gpgpu_stall_shd_mem[gl_mem][coal_stall] = 2304030
gpgpu_stall_shd_mem[gl_mem][data_port_stall] = 0
gpu_reg_bank_conflict_stalls = 0
Warp Occupancy Distribution:
Stall:7871299	W0_Idle:252106	W0_Scoreboard:48213287	W1:0	W2:0	W3:0	W4:0	W5:0	W6:0	W7:0	W8:0	W9:0	W10:0	W11:0	W12:0	W13:0	W14:0	W15:0	W16:0	W17:0	W18:0	W19:0	W20:0	W21:0	W22:0	W23:0	W24:0	W25:0	W26:0	W27:0	W28:0	W29:0	W30:0	W31:266826	W32:2050242
single_issue_nums: WS0:579684	WS1:579933	WS2:578039	WS3:579412	
dual_issue_nums: WS0:0	WS1:0	WS2:0	WS3:0	
traffic_breakdown_coretomem[GLOBAL_ACC_R] = 6978336 {8:872292,}
traffic_breakdown_coretomem[GLOBAL_ACC_W] = 24645392 {8:2374234,40:141288,}
traffic_breakdown_memtocore[GLOBAL_ACC_R] = 34493800 {40:862345,}
traffic_breakdown_memtocore[GLOBAL_ACC_W] = 19793416 {8:2474177,}
maxmflatency = 9655 
max_icnt2mem_latency = 8621 
maxmrqlatency = 211 
max_icnt2sh_latency = 233 
averagemflatency = 3066 
avg_icnt2mem_latency = 1991 
avg_mrq_latency = 16 
avg_icnt2sh_latency = 2 
mrq_lat_table:95041 	46058 	12777 	16853 	27396 	37740 	15104 	1524 	0 	0 	0 	0 	0 	0 	0 	0 	0 	0 	0 	0 	0 	0 	0 	0 	0 	0 	0 	0 	0 	0 	0 	0 	
dq_lat_table:0 	0 	0 	0 	0 	0 	0 	0 	0 	0 	0 	0 	0 	0 	0 	0 	0 	0 	0 	0 	0 	0 	0 	0 	0 	0 	0 	0 	0 	0 	0 	0 	
mf_lat_table:0 	0 	0 	0 	0 	0 	0 	16739 	69722 	135244 	568302 	1804958 	741094 	437 	0 	0 	0 	0 	0 	0 	0 	0 	0 	0 	0 	0 	0 	0 	0 	0 	0 	0 	
icnt2mem_lat_table:0 	5519 	2656 	3003 	20649 	18478 	31408 	80925 	185094 	427411 	1083659 	1346956 	150493 	17 	0 	0 	0 	0 	0 	0 	0 	0 	0 	0 	
icnt2sh_lat_table:0 	2963739 	273899 	63607 	21059 	9790 	3343 	1059 	0 	0 	0 	0 	0 	0 	0 	0 	0 	0 	0 	0 	0 	0 	0 	0 	
mf_lat_pw_table:0 	0 	0 	0 	0 	0 	0 	0 	3 	3 	20 	297 	42 	0 	0 	0 	0 	0 	0 	0 	0 	0 	0 	0 	0 	0 	0 	0 	0 	0 	0 	0 	
maximum concurrent accesses to same row:
dram[0]:        64        64        64        64        64        64        64        64        64        64        64        64        64        64        64        64 
dram[1]:        64        64        64        64        64        64        64        64        64        64        64        64        64        64        64        64 
dram[2]:        64        64        64        64        64        64        64        64        64        64        64        64        64        64        64        64 
dram[3]:        64        64        64        64        64        64        64        64        64        64        64        64        64        64        64        64 
dram[4]:        64        64        64        64        64        64        64        64        64        64        64        64        64        64        64        64 
dram[5]:        64        64        64        64        64        64        64        64        64        64        64        64        64        64        64        64 
dram[6]:        64        64        64        64        64        64        64        64        64        64        64        64        64        64        64        64 
dram[7]:        64        64        64        64        64        64        64        64        64        64        64        64        64        64        64        64 
dram[8]:        64        64        64        64        64        64        64        64        64        64        64        64        64        64        64        64 
dram[9]:        64        64        64        64        64        64        64        64        64        64        64        64        64        64        64        64 
dram[10]:        64        64        64        64        64        64        64        64        64        64        64        64        64        64        64        64 
dram[11]:        64        64        64        64        64        64        64        64        64        64        64        64        64        64        64        64 
dram[12]:        64        64        64        64        64        64        64        64        64        64        64        64        64        64        64        64 
dram[13]:        64        64        64        64        64        64        64        64        64        64        64        64        64        64        64        64 
dram[14]:        64        64        64        64        64        64        64        64        64        64        64        64        64        64        64        64 
dram[15]:        64        64        64        64        64        64        64        64        64        64        64        64        64        64        64        64 
dram[16]:        64        64        64        64        64        64        64        64        64        64        64        64        64        64        64        64 
dram[17]:        64        64        64        64        64        64        64        64        64        64        64        64        64        64        64        64 
dram[18]:        64        64        64        64        64        64        64        64        64        64        64        64        64        64        64        64 
dram[19]:        64        64        64        64        64        64        64        64        64        64        64        64        64        64        64        64 
dram[20]:        64        64        64        64        64        64        64        64        64        64        64        64        64        64        64        64 
dram[21]:        64        64        64        64        64        64        64        64        64        64        64        64        64        64        64        64 
dram[22]:        64        64        64        64        64        64        64        64        64        64        64        64        64        64        64        64 
dram[23]:        64        64        64        64        64        64        64        64        64        64        64        64        64        64        64        64 
dram[24]:        64        64        64        64        64        64        64        64        64        64        64        64        64        64        64        56 
dram[25]:        64        64        64        64        64        64        64        64        64        64        64        64        64        64        64        56 
dram[26]:        64        64        64        64        64        64        64        64        64        64        64        64        64        64        64        56 
dram[27]:        64        64        64        64        64        64        64        64        64        64        64        64        64        64        64        56 
dram[28]:        64        64        64        64        64        64        64        64        64        64        64        64        64        64        64        56 
dram[29]:        64        64        64        64        64        64        64        64        64        64        64        64        64        64        64        56 
dram[30]:        64        64        64        64        64        64        64        64        64        64        64        64        64        64        64        56 
dram[31]:        64        64        64        64        64        64        64        64        64        64        64        64        64        64        64        56 
maximum service time to same row:
dram[0]:     36661     42865     33672     34852     46147     36989     42357     41380     39471     44222     39634     44953     33544     45734     42319     32782 
dram[1]:     31220     39793     28267     34661     28984     36962     42431     42458     43662     45416     44787     28979     33945     31693     36524     32727 
dram[2]:     33875     38770     28316     30657     27774     37755     42233     41514     42029     44559     31063     27577     33753     44243     36400     42061 
dram[3]:     26741     39150     47360     33484     28614     36806     42182     42055     44281     41440     25934     29504     33854     31840     36512     42482 
dram[4]:     35976     39082     32859     33866     27215     41468     41885     42394     31359     44485     28166     27443     34509     31864     36351     40993 
dram[5]:     26727     41428     30926     33964     27189     35081     42748     37918     30730     41655     44687     27187     34235     31442     36645     32744 
dram[6]:     41985     32458     31913     47663     45934     34114     41841     43305     30036     37176     42553     27950     34127     32555     36579     41462 
dram[7]:     35024     47961     32880     32684     27345     35865     41469     43382     37857     45238     22893     29914     34530     45009     42855     42680 
dram[8]:     26285     47741     29011     47677     30669     35247     42501     47621     43875     45539     36192     31338     34692     43756     35672     43192 
dram[9]:     36932     42206     45947     28570     35451     37234     42361     48194     43894     45681     35499     43475     44881     31230     34696     34889 
dram[10]:     30099     46027     47115     46773     48390     37055     42737     47809     44327     45453     45280     27681     37550     31791     34030     35611 
dram[11]:     35096     40794     31625     38131     31866     37562     43766     47503     44896     44582     28196     28380     33486     34434     34517     35400 
dram[12]:     36615     35480     47117     29262     26888     36325     43025     45219     44604     44043     45235     27846     32637     34359     33581     35893 
dram[13]:     36809     42679     45835     28187     26818     42347     42656     47844     41545     45904     44475     26790     34344     30680     44602     34345 
dram[14]:     31087     32214     29998     29397     48969     37723     42331     47341     40691     44510     26573     27298     35793     44718     34520     42671 
dram[15]:     33316     31324     28551     28386     31929     41806     44029     46456     44662     44920     25053     34954     34195     45514     35208     34741 
dram[16]:     40940     42331     28891     47693     30667     40867     42421     42478     44580     45479     46025     24606     44239     43929     43810     42494 
dram[17]:     41619     32968     46095     29183     46052     40812     41847     42913     44267     45739     32858     25045     32538     33115     35746     34115 
dram[18]:     41312     48062     46480     28513     46339     40663     41886     42432     43655     45864     46850     26239     33571     33450     35770     34524 
dram[19]:     31868     32031     46745     28156     30190     40413     42091     42099     39938     44907     45660     27413     32944     44181     36557     33658 
dram[20]:     42098     36617     32109     31259     27941     38693     42318     41788     40765     44036     26719     32351     32911     44290     36370     42461 
dram[21]:     35105     44543     28416     34587     27463     38743     42246     42025     40246     44011     28297     31789     44511     34413     36411     42584 
dram[22]:     34566     36232     30619     28508     26979     39952     38147     43101     42641     31877     40488     25615     33757     32045     36961     32996 
dram[23]:     33143     36151     35855     29153     26598     39449     41517     42557     39653     45917     29047     31499     43587     45364     42899     43649 
dram[24]:     45884     43254     45198     32958     35733     38550     43757     45795     45691     44149     25766     25958     44458     44445     43009     35586 
dram[25]:     41668     32413     30779     46842     42438     37570     44561     43619     46463     45496     26443     40150     35021     32421     43314     34424 
dram[26]:     30174     43417     29139     28408     33611     38333     44294     45048     44693     39676     25564     38548     34853     32247     33759     33717 
dram[27]:     35438     41752     32384     45924     33316     39282     45153     42202     46139     43143     24685     44874     35167     33265     33849     34340 
dram[28]:     34333     36075     29971     28736     42590     38256     42727     46591     40144     40744     25008     28020     35135     32493     33842     34750 
dram[29]:     35769     32674     33457     33045     43800     39247     43715     43012     44366     39926     41835     29499     34839     32964     42856     34477 
dram[30]:     45500     38218     45245     32687     42836     37686     42247     44453     43724     40018     43730     44968     44538     33000     33738     34986 
dram[31]:     29542     25358     45918     28933     31839     39831     43245     43635     44582     40572     24770     31087     34863     33349     33574     34764 
average row accesses per activate:
dram[0]: 25.049999 28.789474 24.727272 22.583334 34.866665 32.500000 19.500000 20.879999 39.846153 31.000000 11.000000 13.093750 14.655172 13.060606 14.689655 14.300000 
dram[1]: 20.500000 19.310345 21.153847 26.047619 30.529411 25.714285 19.777779 28.666666 34.533333 29.705883 10.044444  9.680851 13.437500 10.857142 12.885715 14.655172 
dram[2]: 20.833334 25.043478 21.730770 24.772728 29.777779 28.888889 22.583334 21.291666 25.095238 37.153847  9.863636 11.864865 11.710526 13.028571 11.200000 12.852942 
dram[3]: 21.666666 24.565218 30.333334 25.136364 26.700001 26.450001 22.750000 19.814816 30.705883 32.266666 12.388889 12.250000 14.258064 11.947369 13.121212 15.678572 
dram[4]: 22.173914 32.470589 28.631578 27.750000 29.833334 29.055555 21.840000 18.310345 28.470589 31.375000 10.142858 11.051282 10.302325 12.361111 10.111111 12.764706 
dram[5]: 17.689655 26.380953 21.037037 22.639999 22.480000 26.473684 26.047619 21.125000 26.200001 37.153847  8.245283 11.513514  8.250000 12.305555  9.000000  9.680851 
dram[6]: 20.360001 23.400000 25.952381 18.299999 24.454546 29.823530 27.210526 19.961538 33.733334 46.799999 12.457143 12.297297 10.707317 12.628572 14.200000 15.321428 
dram[7]: 24.000000 32.470589 26.285715 20.037037 27.000000 22.652174 21.192308 21.791666 34.285713 29.764706  9.212766 13.625000  9.863636 12.135135 11.702703 13.468750 
dram[8]: 32.375000 28.277779 22.040001 19.655172 29.444445 31.411764 23.478260 21.038462 28.294117 30.687500 11.972222 10.975000 13.484848 11.513514 12.969697 10.925000 
dram[9]: 34.266666 28.888889 21.520000 22.400000 23.565218 27.400000 22.291666 28.105263 32.400002 35.428570 13.121212 13.406250 14.100000 11.864865 14.032258 12.027027 
dram[10]: 23.863636 34.400002 19.678572 19.241379 23.217392 26.850000 20.879999 19.500000 30.750000 37.230770 12.909091 14.129032 12.878788 11.648648 13.333333 10.609756 
dram[11]: 32.529411 23.041666 21.230770 21.923077 24.318182 22.291666 19.000000 20.692308 33.599998 29.117647 12.138889 14.666667 13.090909 10.404762 13.500000 13.181818 
dram[12]: 26.333334 28.157894 26.333334 23.000000 25.095238 28.315790 27.684210 19.740740 36.307693 31.533333 11.675675 12.083333 11.461538 12.428572 12.457143 11.538462 
dram[13]: 28.549999 23.291666 19.785715 27.700001 26.200001 22.666666 22.043478 23.000000 29.882353 35.846153 12.542857 15.392858 14.000000 12.457143 15.178572 11.150000 
dram[14]: 31.055555 22.879999 21.680000 22.559999 26.100000 25.809525 24.047619 23.636364 34.071430 37.615383 13.593750 14.062500 12.222222 13.060606 12.970589 13.187500 
dram[15]: 29.789474 26.809525 19.392857 18.225807 22.208334 28.052631 24.238094 18.892857 34.285713 29.375000 12.000000 12.027778 11.631579 11.102564 16.629629 13.323529 
dram[16]: 35.266666 30.647058 17.741936 18.551723 30.411764 33.687500 19.333334 27.789474 32.266666 30.500000 12.416667 10.357142 17.320000 11.944445 12.388889 12.970589 
dram[17]: 26.047619 30.470589 19.535715 24.208334 27.631578 25.476191 25.190475 24.952381 30.937500 30.937500 13.000000 11.263158 14.827586 12.638889 13.424242 12.628572 
dram[18]: 36.571430 30.117647 22.000000 22.520000 26.650000 27.450001 24.000000 22.956522 32.866665 31.000000 13.838710 11.783784 13.906250 12.542857 12.969697 14.793103 
dram[19]: 25.857143 23.500000 19.962963 18.866667 22.166666 29.277779 20.000000 25.238094 33.533333 28.000000 13.242424 12.371428 14.233334 13.967742 13.117647 14.433333 
dram[20]: 23.652174 30.411764 22.125000 19.275862 19.678572 32.125000 21.541666 26.500000 33.400002 27.333334 13.060606 11.538462 10.950000 13.303030 14.096774 13.967742 
dram[21]: 32.411766 21.879999 19.357143 23.826086 27.578947 22.458334 23.000000 24.809525 40.583332 33.428570 14.200000 11.710526 13.121212 13.000000 16.148148 11.153846 
dram[22]: 26.714285 24.130434 17.612904 22.559999 25.600000 26.450001 20.360001 21.080000 38.307693 31.000000 12.735294 13.333333 12.558824 13.935484 15.500000 12.542857 
dram[23]: 25.772728 32.235294 19.750000 19.000000 23.086956 24.000000 20.440001 19.185184 27.111111 33.714287 11.916667 11.945946 14.225806 13.935484 12.764706 11.756757 
dram[24]: 28.500000 32.312500 16.843750 17.580645 29.055555 29.500000 23.727272 18.862068 30.062500 39.153847 12.000000 12.657143 13.424242 13.531250 12.111111 11.210526 
dram[25]: 24.545454 34.857143 20.407408 21.480000 26.850000 31.058823 25.619047 18.892857 38.692307 30.125000 13.176471 13.333333 14.343750 12.000000 16.407408 11.361111 
dram[26]: 26.947369 28.611111 21.000000 18.933332 22.041666 22.541666 28.444445 24.000000 29.500000 36.214287 10.488372 11.076923 13.812500 12.617647 13.181818 12.382353 
dram[27]: 27.700001 32.875000 21.269230 19.888889 27.736841 21.840000 25.700001 26.250000 30.875000 30.625000 10.204545 13.935484 13.575758 11.578947 11.789474 11.361111 
dram[28]: 30.166666 29.500000 22.833334 21.423077 26.549999 25.952381 23.318182 26.100000 33.000000 29.470589 13.212121 13.593750 15.714286 12.416667 13.176471 12.382353 
dram[29]: 25.272728 30.352942 16.235294 25.318182 28.944445 26.400000 25.799999 20.576923 32.000000 35.928570 11.722222 14.800000 14.433333 14.193548 12.771428 11.555555 
dram[30]: 38.642857 29.277779 16.121212 24.217392 29.222221 24.045454 19.222221 23.590910 40.500000 40.250000 13.312500 11.236842 16.760000 13.181818 14.064516 11.432432 
dram[31]: 24.173914 23.652174 18.166666 21.222221 25.476191 25.900000 17.225807 21.480000 31.933332 26.315790 12.400000 10.634147 14.000000 14.096774 15.888889 11.857142 
average row locality = 252493/13436 = 18.792274
number of total memory accesses made:
dram[0]:         0         0         0         0         0         0         0         0         0         0         0         0         0         0         0         0 
dram[1]:         0         0         0         0         0         0         0         0         0         0         0         0         0         0         0         0 
dram[2]:         0         0         0         0         0         0         0         0         0         0         0         0         0         0         0         0 
dram[3]:         0         0         0         0         0         0         0         0         0         0         0         0         0         0         0         0 
dram[4]:         0         0         0         0         0         0         0         0         0         0         0         0         0         0         0         0 
dram[5]:         0         0         0         0         0         0         0         0         0         0         0         0         0         0         0         0 
dram[6]:         0         0         0         0         0         0         0         0         0         0         0         0         0         0         0         0 
dram[7]:         0         0         0         0         0         0         0         0         0         0         0         0         0         0         0         0 
dram[8]:         0         0         0         0         0         0         0         0         0         0         0         0         0         0         0         0 
dram[9]:         0         0         0         0         0         0         0         0         0         0         0         0         0         0         0         0 
dram[10]:         0         0         0         0         0         0         0         0         0         0         0         0         0         0         0         0 
dram[11]:         0         0         0         0         0         0         0         0         0         0         0         0         0         0         0         0 
dram[12]:         0         0         0         0         0         0         0         0         0         0         0         0         0         0         0         0 
dram[13]:         0         0         0         0         0         0         0         0         0         0         0         0         0         0         0         0 
dram[14]:         0         0         0         0         0         0         0         0         0         0         0         0         0         0         0         0 
dram[15]:         0         0         0         0         0         0         0         0         0         0         0         0         0         0         0         0 
dram[16]:         0         0         0         0         0         0         0         0         0         0         0         0         0         0         0         0 
dram[17]:         0         0         0         0         0         0         0         0         0         0         0         0         0         0         0         0 
dram[18]:         0         0         0         0         0         0         0         0         0         0         0         0         0         0         0         0 
dram[19]:         0         0         0         0         0         0         0         0         0         0         0         0         0         0         0         0 
dram[20]:         0         0         0         0         0         0         0         0         0         0         0         0         0         0         0         0 
dram[21]:         0         0         0         0         0         0         0         0         0         0         0         0         0         0         0         0 
dram[22]:         0         0         0         0         0         0         0         0         0         0         0         0         0         0         0         0 
dram[23]:         0         0         0         0         0         0         0         0         0         0         0         0         0         0         0         0 
dram[24]:         0         0         0         0         0         0         0         0         0         0         0         0         0         0         0         0 
dram[25]:         0         0         0         0         0         0         0         0         0         0         0         0         0         0         0         0 
dram[26]:         0         0         0         0         0         0         0         0         0         0         0         0         0         0         0         0 
dram[27]:         0         0         0         0         0         0         0         0         0         0         0         0         0         0         0         0 
dram[28]:         0         0         0         0         0         0         0         0         0         0         0         0         0         0         0         0 
dram[29]:         0         0         0         0         0         0         0         0         0         0         0         0         0         0         0         0 
dram[30]:         0         0         0         0         0         0         0         0         0         0         0         0         0         0         0         0 
dram[31]:         0         0         0         0         0         0         0         0         0         0         0         0         0         0         0         0 
total accesses: 0
min_bank_accesses = 0!
min_chip_accesses = 0!
number of total read accesses:
dram[0]:       432       448       448       448       448       448       448       448       448       432       384       384       384       384       384       384 
dram[1]:       432       448       448       448       448       448       448       448       440       432       384       384       384       384       384       384 
[...]
Read = 6716 
Write = 0 
L2_Alloc = 0 
L2_WB = 3508 
n_act = 425 
n_pre = 409 
n_ref = 0 
n_req = 7892 
total_req = 10224 

Dual Bus Interface Util: 
issued_total_row = 834 
issued_total_col = 10224 
Row_Bus_Util =  0.005899 
CoL_Bus_Util = 0.072312 
Either_Row_CoL_Bus_Util = 0.077298 
Issued_on_Two_Bus_Simul_Util = 0.000912 
issued_two_Eff = 0.011803 
queue_avg = 0.588901 


dram_util_bins: 0 0 0 0 0 0 0 0 0 0
dram_eff_bins: 0 0 0 0 0 0 0 0 0 0
mrqq: max=63 avg=0.588901
Memory Partition 28: 
Cache L2_bank_056:

Cache L2_bank_057:

In Dram Latency Queue (total = 257): 
DRAM[28]: 16 bks, busW=16 BL=2 CL=12, tRRD=3 tCCD=1, tRCD=12 tRAS=28 tRP=12 tRC=40
n_cmd=141387 n_nop=130478 n_act=397 n_pre=381 n_ref_event=0 n_req=7880 n_rd=6708 n_rd_L2_A=0 n_write=0 n_wr_bk=3541 bw_util=0.07249
n_activity=38432 dram_eff=0.2667
bk0: 448a 139791i bk1: 448a 139826i bk2: 448a 139574i bk3: 448a 139477i bk4: 448a 140013i bk5: 448a 139931i bk6: 448a 140064i bk7: 448a 140021i bk8: 408a 140114i bk9: 428a 140066i bk10: 384a 139642i bk11: 384a 139688i bk12: 384a 139948i bk13: 384a 139730i bk14: 384a 139688i bk15: 368a 139727i 

------------------------------------------------------------------------

Row_Buffer_Locality = 0.949619
Row_Buffer_Locality_read = 0.960644
Row_Buffer_Locality_write = 0.886519
Bank_Level_Parallism = 1.388115
Bank_Level_Parallism_Col = 1.326125
Bank_Level_Parallism_Ready = 1.135038
write_to_read_ratio_blp_rw_average = 0.480902
GrpLevelPara = 1.280582 

BW Util details:
bwutil = 0.072489 
total_CMD = 141387 
util_bw = 10249 
Wasted_Col = 10482 
Wasted_Row = 2878 
Idle = 117778 

BW Util Bottlenecks: 
RCDc_limit = 2434 
RCDWRc_limit = 1095 
WTRc_limit = 843 
RTWc_limit = 3719 
CCDLc_limit = 4741 
rwq = 0 
CCDLc_limit_alone = 4394 
WTRc_limit_alone = 725 
RTWc_limit_alone = 3490 

Commands details: 
total_CMD = 141387 
n_nop = 130478 
Read = 6708 
Write = 0 
L2_Alloc = 0 
L2_WB = 3541 
n_act = 397 
n_pre = 381 
n_ref = 0 
n_req = 7880 
total_req = 10249 

Dual Bus Interface Util: 
issued_total_row = 778 
issued_total_col = 10249 
Row_Bus_Util =  0.005503 
CoL_Bus_Util = 0.072489 
Either_Row_CoL_Bus_Util = 0.077157 
Issued_on_Two_Bus_Simul_Util = 0.000835 
issued_two_Eff = 0.010817 
queue_avg = 0.604610 


dram_util_bins: 0 0 0 0 0 0 0 0 0 0
dram_eff_bins: 0 0 0 0 0 0 0 0 0 0
mrqq: max=48 avg=0.60461
Memory Partition 29: 
Cache L2_bank_058:

Cache L2_bank_059:

In Dram Latency Queue (total = 257): 
DRAM[29]: 16 bks, busW=16 BL=2 CL=12, tRRD=3 tCCD=1, tRCD=12 tRAS=28 tRP=12 tRC=40
n_cmd=141387 n_nop=130513 n_act=406 n_pre=390 n_ref_event=0 n_req=7866 n_rd=6704 n_rd_L2_A=0 n_write=0 n_wr_bk=3519 bw_util=0.07231
n_activity=37902 dram_eff=0.2697
bk0: 448a 139760i bk1: 448a 139885i bk2: 448a 139315i bk3: 448a 139559i bk4: 448a 140076i bk5: 448a 139907i bk6: 448a 139886i bk7: 448a 139812i bk8: 416a 140054i bk9: 416a 139946i bk10: 384a 139682i bk11: 384a 139774i bk12: 384a 139751i bk13: 384a 139846i bk14: 384a 139646i bk15: 368a 139601i 

------------------------------------------------------------------------

Row_Buffer_Locality = 0.948385
Row_Buffer_Locality_read = 0.959576
Row_Buffer_Locality_write = 0.883821
Bank_Level_Parallism = 1.433367
Bank_Level_Parallism_Col = 1.370135
Bank_Level_Parallism_Ready = 1.170107
write_to_read_ratio_blp_rw_average = 0.468734
GrpLevelPara = 1.307829 

BW Util details:
bwutil = 0.072305 
total_CMD = 141387 
util_bw = 10223 
Wasted_Col = 10295 
Wasted_Row = 2894 
Idle = 117975 

BW Util Bottlenecks: 
RCDc_limit = 2452 
RCDWRc_limit = 1078 
WTRc_limit = 903 
RTWc_limit = 3589 
CCDLc_limit = 4772 
rwq = 0 
CCDLc_limit_alone = 4456 
WTRc_limit_alone = 829 
RTWc_limit_alone = 3347 

Commands details: 
total_CMD = 141387 
n_nop = 130513 
Read = 6704 
Write = 0 
L2_Alloc = 0 
L2_WB = 3519 
n_act = 406 
n_pre = 390 
n_ref = 0 
n_req = 7866 
total_req = 10223 

Dual Bus Interface Util: 
issued_total_row = 796 
issued_total_col = 10223 
Row_Bus_Util =  0.005630 
CoL_Bus_Util = 0.072305 
Either_Row_CoL_Bus_Util = 0.076909 
Issued_on_Two_Bus_Simul_Util = 0.001026 
issued_two_Eff = 0.013335 
queue_avg = 0.650767 


dram_util_bins: 0 0 0 0 0 0 0 0 0 0
dram_eff_bins: 0 0 0 0 0 0 0 0 0 0
mrqq: max=62 avg=0.650767
Memory Partition 30: 
Cache L2_bank_060:

Cache L2_bank_061:

In Dram Latency Queue (total = 256): 
DRAM[30]: 16 bks, busW=16 BL=2 CL=12, tRRD=3 tCCD=1, tRCD=12 tRAS=28 tRP=12 tRC=40
n_cmd=141387 n_nop=130700 n_act=397 n_pre=381 n_ref_event=0 n_req=7785 n_rd=6712 n_rd_L2_A=0 n_write=0 n_wr_bk=3339 bw_util=0.07109
n_activity=37135 dram_eff=0.2707
bk0: 448a 139989i bk1: 448a 139809i bk2: 448a 139424i bk3: 448a 139601i bk4: 448a 139999i bk5: 448a 139931i bk6: 448a 139646i bk7: 448a 139887i bk8: 424a 140235i bk9: 416a 140067i bk10: 384a 139871i bk11: 384a 139647i bk12: 384a 139948i bk13: 384a 139864i bk14: 384a 139702i bk15: 368a 139766i 

------------------------------------------------------------------------

Row_Buffer_Locality = 0.949004
Row_Buffer_Locality_read = 0.958433
Row_Buffer_Locality_write = 0.890028
Bank_Level_Parallism = 1.406907
Bank_Level_Parallism_Col = 1.344998
Bank_Level_Parallism_Ready = 1.158392
write_to_read_ratio_blp_rw_average = 0.468822
GrpLevelPara = 1.292406 

BW Util details:
bwutil = 0.071089 
total_CMD = 141387 
util_bw = 10051 
Wasted_Col = 10194 
Wasted_Row = 2920 
Idle = 118222 

BW Util Bottlenecks: 
RCDc_limit = 2519 
RCDWRc_limit = 961 
WTRc_limit = 807 
RTWc_limit = 3574 
CCDLc_limit = 4617 
rwq = 0 
CCDLc_limit_alone = 4278 
WTRc_limit_alone = 687 
RTWc_limit_alone = 3355 

Commands details: 
total_CMD = 141387 
n_nop = 130700 
Read = 6712 
Write = 0 
L2_Alloc = 0 
L2_WB = 3339 
n_act = 397 
n_pre = 381 
n_ref = 0 
n_req = 7785 
total_req = 10051 

Dual Bus Interface Util: 
issued_total_row = 778 
issued_total_col = 10051 
Row_Bus_Util =  0.005503 
CoL_Bus_Util = 0.071089 
Either_Row_CoL_Bus_Util = 0.075587 
Issued_on_Two_Bus_Simul_Util = 0.001004 
issued_two_Eff = 0.013287 
queue_avg = 0.592650 


dram_util_bins: 0 0 0 0 0 0 0 0 0 0
dram_eff_bins: 0 0 0 0 0 0 0 0 0 0
mrqq: max=48 avg=0.59265
Memory Partition 31: 
Cache L2_bank_062:

Cache L2_bank_063:

In Dram Latency Queue (total = 256): 
DRAM[31]: 16 bks, busW=16 BL=2 CL=12, tRRD=3 tCCD=1, tRCD=12 tRAS=28 tRP=12 tRC=40
n_cmd=141387 n_nop=130390 n_act=434 n_pre=418 n_ref_event=0 n_req=7906 n_rd=6712 n_rd_L2_A=0 n_write=0 n_wr_bk=3587 bw_util=0.07284
n_activity=38776 dram_eff=0.2656
bk0: 448a 139790i bk1: 448a 139618i bk2: 448a 139503i bk3: 448a 139344i bk4: 448a 139926i bk5: 448a 139994i bk6: 448a 139488i bk7: 448a 139747i bk8: 408a 140167i bk9: 432a 139816i bk10: 384a 139690i bk11: 384a 139475i bk12: 384a 139872i bk13: 384a 139850i bk14: 384a 139764i bk15: 368a 139660i 

------------------------------------------------------------------------

Row_Buffer_Locality = 0.945105
Row_Buffer_Locality_read = 0.957837
Row_Buffer_Locality_write = 0.873534
Bank_Level_Parallism = 1.412601
Bank_Level_Parallism_Col = 1.348702
Bank_Level_Parallism_Ready = 1.142538
write_to_read_ratio_blp_rw_average = 0.491537
GrpLevelPara = 1.305746 

BW Util details:
bwutil = 0.072843 
total_CMD = 141387 
util_bw = 10299 
Wasted_Col = 10915 
Wasted_Row = 3134 
Idle = 117039 

BW Util Bottlenecks: 
RCDc_limit = 2545 
RCDWRc_limit = 1218 
WTRc_limit = 900 
RTWc_limit = 4211 
CCDLc_limit = 4730 
rwq = 0 
CCDLc_limit_alone = 4345 
WTRc_limit_alone = 781 
RTWc_limit_alone = 3945 

Commands details: 
total_CMD = 141387 
n_nop = 130390 
Read = 6712 
Write = 0 
L2_Alloc = 0 
L2_WB = 3587 
n_act = 434 
n_pre = 418 
n_ref = 0 
n_req = 7906 
total_req = 10299 

Dual Bus Interface Util: 
issued_total_row = 852 
issued_total_col = 10299 
Row_Bus_Util =  0.006026 
CoL_Bus_Util = 0.072843 
Either_Row_CoL_Bus_Util = 0.077779 
Issued_on_Two_Bus_Simul_Util = 0.001089 
issued_two_Eff = 0.014004 
queue_avg = 0.667982 


dram_util_bins: 0 0 0 0 0 0 0 0 0 0
dram_eff_bins: 0 0 0 0 0 0 0 0 0 0
mrqq: max=62 avg=0.667982

========= L2 cache stats =========
L2_cache_bank[0]: Access = 17281, Miss = 7489, Miss_rate = 0.433, Pending_hits = 80, Reservation_fails = 0
L2_cache_bank[1]: Access = 17505, Miss = 7516, Miss_rate = 0.429, Pending_hits = 88, Reservation_fails = 0
L2_cache_bank[2]: Access = 17821, Miss = 7304, Miss_rate = 0.410, Pending_hits = 88, Reservation_fails = 0
L2_cache_bank[3]: Access = 18103, Miss = 7375, Miss_rate = 0.407, Pending_hits = 79, Reservation_fails = 0
L2_cache_bank[4]: Access = 17766, Miss = 7282, Miss_rate = 0.410, Pending_hits = 72, Reservation_fails = 0
L2_cache_bank[5]: Access = 18116, Miss = 7339, Miss_rate = 0.405, Pending_hits = 37, Reservation_fails = 0
L2_cache_bank[6]: Access = 17299, Miss = 7137, Miss_rate = 0.413, Pending_hits = 81, Reservation_fails = 0
L2_cache_bank[7]: Access = 18002, Miss = 7422, Miss_rate = 0.412, Pending_hits = 96, Reservation_fails = 0
L2_cache_bank[8]: Access = 17535, Miss = 7239, Miss_rate = 0.413, Pending_hits = 77, Reservation_fails = 0
L2_cache_bank[9]: Access = 18089, Miss = 7419, Miss_rate = 0.410, Pending_hits = 81, Reservation_fails = 0
L2_cache_bank[10]: Access = 17437, Miss = 7202, Miss_rate = 0.413, Pending_hits = 63, Reservation_fails = 0
L2_cache_bank[11]: Access = 17911, Miss = 7370, Miss_rate = 0.411, Pending_hits = 72, Reservation_fails = 0
L2_cache_bank[12]: Access = 17926, Miss = 7410, Miss_rate = 0.413, Pending_hits = 84, Reservation_fails = 0
L2_cache_bank[13]: Access = 18066, Miss = 7400, Miss_rate = 0.410, Pending_hits = 97, Reservation_fails = 0
L2_cache_bank[14]: Access = 17351, Miss = 7236, Miss_rate = 0.417, Pending_hits = 74, Reservation_fails = 0
L2_cache_bank[15]: Access = 17873, Miss = 7457, Miss_rate = 0.417, Pending_hits = 100, Reservation_fails = 0
L2_cache_bank[16]: Access = 17414, Miss = 7526, Miss_rate = 0.432, Pending_hits = 74, Reservation_fails = 0
L2_cache_bank[17]: Access = 17741, Miss = 7472, Miss_rate = 0.421, Pending_hits = 69, Reservation_fails = 0
L2_cache_bank[18]: Access = 17785, Miss = 7380, Miss_rate = 0.415, Pending_hits = 79, Reservation_fails = 0
L2_cache_bank[19]: Access = 18016, Miss = 7436, Miss_rate = 0.413, Pending_hits = 65, Reservation_fails = 0
L2_cache_bank[20]: Access = 17879, Miss = 7413, Miss_rate = 0.415, Pending_hits = 47, Reservation_fails = 0
L2_cache_bank[21]: Access = 18223, Miss = 7478, Miss_rate = 0.410, Pending_hits = 91, Reservation_fails = 0
L2_cache_bank[22]: Access = 17791, Miss = 7349, Miss_rate = 0.413, Pending_hits = 71, Reservation_fails = 0
L2_cache_bank[23]: Access = 17893, Miss = 7335, Miss_rate = 0.410, Pending_hits = 60, Reservation_fails = 0
L2_cache_bank[24]: Access = 17747, Miss = 7384, Miss_rate = 0.416, Pending_hits = 48, Reservation_fails = 0
L2_cache_bank[25]: Access = 18229, Miss = 7391, Miss_rate = 0.405, Pending_hits = 93, Reservation_fails = 0
L2_cache_bank[26]: Access = 18307, Miss = 7474, Miss_rate = 0.408, Pending_hits = 109, Reservation_fails = 0
L2_cache_bank[27]: Access = 17762, Miss = 7248, Miss_rate = 0.408, Pending_hits = 51, Reservation_fails = 0
L2_cache_bank[28]: Access = 18093, Miss = 7378, Miss_rate = 0.408, Pending_hits = 76, Reservation_fails = 0
L2_cache_bank[29]: Access = 18023, Miss = 7358, Miss_rate = 0.408, Pending_hits = 84, Reservation_fails = 0
L2_cache_bank[30]: Access = 17714, Miss = 7384, Miss_rate = 0.417, Pending_hits = 109, Reservation_fails = 0
L2_cache_bank[31]: Access = 17695, Miss = 7385, Miss_rate = 0.417, Pending_hits = 45, Reservation_fails = 0
L2_cache_bank[32]: Access = 17612, Miss = 7552, Miss_rate = 0.429, Pending_hits = 75, Reservation_fails = 0
L2_cache_bank[33]: Access = 17215, Miss = 7501, Miss_rate = 0.436, Pending_hits = 40, Reservation_fails = 0
L2_cache_bank[34]: Access = 17867, Miss = 7390, Miss_rate = 0.414, Pending_hits = 45, Reservation_fails = 0
L2_cache_bank[35]: Access = 17963, Miss = 7354, Miss_rate = 0.409, Pending_hits = 74, Reservation_fails = 0
L2_cache_bank[36]: Access = 18078, Miss = 7362, Miss_rate = 0.407, Pending_hits = 48, Reservation_fails = 0
L2_cache_bank[37]: Access = 18247, Miss = 7489, Miss_rate = 0.410, Pending_hits = 73, Reservation_fails = 0
L2_cache_bank[38]: Access = 17973, Miss = 7412, Miss_rate = 0.412, Pending_hits = 88, Reservation_fails = 0
L2_cache_bank[39]: Access = 18034, Miss = 7465, Miss_rate = 0.414, Pending_hits = 38, Reservation_fails = 0
L2_cache_bank[40]: Access = 18042, Miss = 7468, Miss_rate = 0.414, Pending_hits = 48, Reservation_fails = 0
L2_cache_bank[41]: Access = 17858, Miss = 7369, Miss_rate = 0.413, Pending_hits = 72, Reservation_fails = 0
L2_cache_bank[42]: Access = 17799, Miss = 7439, Miss_rate = 0.418, Pending_hits = 94, Reservation_fails = 0
L2_cache_bank[43]: Access = 18278, Miss = 7400, Miss_rate = 0.405, Pending_hits = 32, Reservation_fails = 0
L2_cache_bank[44]: Access = 18524, Miss = 7495, Miss_rate = 0.405, Pending_hits = 93, Reservation_fails = 0
L2_cache_bank[45]: Access = 17767, Miss = 7317, Miss_rate = 0.412, Pending_hits = 41, Reservation_fails = 0
L2_cache_bank[46]: Access = 17715, Miss = 7349, Miss_rate = 0.415, Pending_hits = 63, Reservation_fails = 0
L2_cache_bank[47]: Access = 17839, Miss = 7477, Miss_rate = 0.419, Pending_hits = 40, Reservation_fails = 0
L2_cache_bank[48]: Access = 17514, Miss = 7482, Miss_rate = 0.427, Pending_hits = 88, Reservation_fails = 0
L2_cache_bank[49]: Access = 17391, Miss = 7486, Miss_rate = 0.430, Pending_hits = 8, Reservation_fails = 0
L2_cache_bank[50]: Access = 18184, Miss = 7403, Miss_rate = 0.407, Pending_hits = 52, Reservation_fails = 0
L2_cache_bank[51]: Access = 17345, Miss = 7186, Miss_rate = 0.414, Pending_hits = 8, Reservation_fails = 0
L2_cache_bank[52]: Access = 17975, Miss = 7374, Miss_rate = 0.410, Pending_hits = 34, Reservation_fails = 0
L2_cache_bank[53]: Access = 17984, Miss = 7362, Miss_rate = 0.409, Pending_hits = 38, Reservation_fails = 0
L2_cache_bank[54]: Access = 18232, Miss = 7381, Miss_rate = 0.405, Pending_hits = 46, Reservation_fails = 0
L2_cache_bank[55]: Access = 17703, Miss = 7223, Miss_rate = 0.408, Pending_hits = 8, Reservation_fails = 0
L2_cache_bank[56]: Access = 17997, Miss = 7373, Miss_rate = 0.410, Pending_hits = 61, Reservation_fails = 0
L2_cache_bank[57]: Access = 17886, Miss = 7306, Miss_rate = 0.408, Pending_hits = 16, Reservation_fails = 0
L2_cache_bank[58]: Access = 17873, Miss = 7434, Miss_rate = 0.416, Pending_hits = 95, Reservation_fails = 0
L2_cache_bank[59]: Access = 17702, Miss = 7276, Miss_rate = 0.411, Pending_hits = 4, Reservation_fails = 0
L2_cache_bank[60]: Access = 18398, Miss = 7544, Miss_rate = 0.410, Pending_hits = 73, Reservation_fails = 0
L2_cache_bank[61]: Access = 17677, Miss = 7309, Miss_rate = 0.413, Pending_hits = 8, Reservation_fails = 0
L2_cache_bank[62]: Access = 17542, Miss = 7327, Miss_rate = 0.418, Pending_hits = 51, Reservation_fails = 0
L2_cache_bank[63]: Access = 17678, Miss = 7384, Miss_rate = 0.418, Pending_hits = 10, Reservation_fails = 0
L2_total_cache_accesses = 1142285
L2_total_cache_misses = 472677
L2_total_cache_miss_rate = 0.4138
L2_total_cache_pending_hits = 4004
L2_total_cache_reservation_fails = 0
L2_total_cache_breakdown:
	L2_cache_stats_breakdown[GLOBAL_ACC_R][HIT] = 643029
	L2_cache_stats_breakdown[GLOBAL_ACC_R][HIT_RESERVED] = 4004
	L2_cache_stats_breakdown[GLOBAL_ACC_R][MISS] = 53987
	L2_cache_stats_breakdown[GLOBAL_ACC_R][RESERVATION_FAIL] = 0
	L2_cache_stats_breakdown[GLOBAL_ACC_R][SECTOR_MISS] = 161954
	L2_cache_stats_breakdown[LOCAL_ACC_R][HIT] = 0
	L2_cache_stats_breakdown[LOCAL_ACC_R][HIT_RESERVED] = 0
	L2_cache_stats_breakdown[LOCAL_ACC_R][MISS] = 0
	L2_cache_stats_breakdown[LOCAL_ACC_R][RESERVATION_FAIL] = 0
	L2_cache_stats_breakdown[LOCAL_ACC_R][SECTOR_MISS] = 0
	L2_cache_stats_breakdown[CONST_ACC_R][HIT] = 0
	L2_cache_stats_breakdown[CONST_ACC_R][HIT_RESERVED] = 0
	L2_cache_stats_breakdown[CONST_ACC_R][MISS] = 0
	L2_cache_stats_breakdown[CONST_ACC_R][RESERVATION_FAIL] = 0
	L2_cache_stats_breakdown[CONST_ACC_R][SECTOR_MISS] = 0
	L2_cache_stats_breakdown[TEXTURE_ACC_R][HIT] = 0
	L2_cache_stats_breakdown[TEXTURE_ACC_R][HIT_RESERVED] = 0
	L2_cache_stats_breakdown[TEXTURE_ACC_R][MISS] = 0
	L2_cache_stats_breakdown[TEXTURE_ACC_R][RESERVATION_FAIL] = 0
	L2_cache_stats_breakdown[TEXTURE_ACC_R][SECTOR_MISS] = 0
	L2_cache_stats_breakdown[GLOBAL_ACC_W][HIT] = 22575
	L2_cache_stats_breakdown[GLOBAL_ACC_W][HIT_RESERVED] = 0
	L2_cache_stats_breakdown[GLOBAL_ACC_W][MISS] = 150645
	L2_cache_stats_breakdown[GLOBAL_ACC_W][RESERVATION_FAIL] = 0
	L2_cache_stats_breakdown[GLOBAL_ACC_W][SECTOR_MISS] = 106091
	L2_cache_stats_breakdown[LOCAL_ACC_W][HIT] = 0
	L2_cache_stats_breakdown[LOCAL_ACC_W][HIT_RESERVED] = 0
	L2_cache_stats_breakdown[LOCAL_ACC_W][MISS] = 0
	L2_cache_stats_breakdown[LOCAL_ACC_W][RESERVATION_FAIL] = 0
	L2_cache_stats_breakdown[LOCAL_ACC_W][SECTOR_MISS] = 0
	L2_cache_stats_breakdown[L1_WRBK_ACC][HIT] = 0
	L2_cache_stats_breakdown[L1_WRBK_ACC][HIT_RESERVED] = 0
	L2_cache_stats_breakdown[L1_WRBK_ACC][MISS] = 0
	L2_cache_stats_breakdown[L1_WRBK_ACC][RESERVATION_FAIL] = 0
	L2_cache_stats_breakdown[L1_WRBK_ACC][SECTOR_MISS] = 0
	L2_cache_stats_breakdown[L2_WRBK_ACC][HIT] = 0
	L2_cache_stats_breakdown[L2_WRBK_ACC][HIT_RESERVED] = 0
	L2_cache_stats_breakdown[L2_WRBK_ACC][MISS] = 0
	L2_cache_stats_breakdown[L2_WRBK_ACC][RESERVATION_FAIL] = 0
	L2_cache_stats_breakdown[L2_WRBK_ACC][SECTOR_MISS] = 0
	L2_cache_stats_breakdown[INST_ACC_R][HIT] = 0
	L2_cache_stats_breakdown[INST_ACC_R][HIT_RESERVED] = 0
	L2_cache_stats_breakdown[INST_ACC_R][MISS] = 0
	L2_cache_stats_breakdown[INST_ACC_R][RESERVATION_FAIL] = 0
	L2_cache_stats_breakdown[INST_ACC_R][SECTOR_MISS] = 0
	L2_cache_stats_breakdown[L1_WR_ALLOC_R][HIT] = 0
	L2_cache_stats_breakdown[L1_WR_ALLOC_R][HIT_RESERVED] = 0
	L2_cache_stats_breakdown[L1_WR_ALLOC_R][MISS] = 0
	L2_cache_stats_breakdown[L1_WR_ALLOC_R][RESERVATION_FAIL] = 0
	L2_cache_stats_breakdown[L1_WR_ALLOC_R][SECTOR_MISS] = 0
	L2_cache_stats_breakdown[L2_WR_ALLOC_R][HIT] = 0
	L2_cache_stats_breakdown[L2_WR_ALLOC_R][HIT_RESERVED] = 0
	L2_cache_stats_breakdown[L2_WR_ALLOC_R][MISS] = 0
	L2_cache_stats_breakdown[L2_WR_ALLOC_R][RESERVATION_FAIL] = 0
	L2_cache_stats_breakdown[L2_WR_ALLOC_R][SECTOR_MISS] = 0
	L2_cache_stats_breakdown[GLOBAL_ACC_R][TOTAL_ACCESS] = 862974
	L2_cache_stats_breakdown[GLOBAL_ACC_W][TOTAL_ACCESS] = 279311
L2_total_cache_reservation_fail_breakdown:
L2_cache_data_port_util = 0.058
L2_cache_fill_port_util = 0.018

icnt_total_pkts_mem_to_simt=3336522
icnt_total_pkts_simt_to_mem=3387814
LD_mem_lat_dist  0 0 0 0 0 0 0 0 0 0 0 0 0 0 0 0 0 0 0 0 0 0 0 0 0 0 0
ST_mem_lat_dist  0 0 0 0 0 0 0 0 0 0 0 0 0 0 0 0 0 0 0 0 0 0 0 0 0 0 0
----------------------------Interconnect-DETAILS--------------------------------
Req_Network_injected_packets_num = 3387814
Req_Network_cycles = 188294
Req_Network_injected_packets_per_cycle =      17.9922 
Req_Network_conflicts_per_cycle =      53.7830
Req_Network_conflicts_per_cycle_util =      55.4128
Req_Bank_Level_Parallism =      18.4368
Req_Network_in_buffer_full_per_cycle =      15.2619
Req_Network_in_buffer_avg_util =     277.4916
Req_Network_out_buffer_full_per_cycle =       1.3567
Req_Network_out_buffer_avg_util =     204.2214

Reply_Network_injected_packets_num = 3336565
Reply_Network_cycles = 188294
Reply_Network_injected_packets_per_cycle =       17.7200
Reply_Network_conflicts_per_cycle =        3.3906
Reply_Network_conflicts_per_cycle_util =       3.5215
Reply_Bank_Level_Parallism =      18.4037
Reply_Network_in_buffer_full_per_cycle =       0.0000
Reply_Network_in_buffer_avg_util =       0.2528
Reply_Network_out_buffer_full_per_cycle =       0.0000
Reply_Network_out_buffer_avg_util =       0.2215
----------------------------END-of-Interconnect-DETAILS-------------------------


gpgpu_simulation_time = 0 days, 0 hrs, 25 min, 46 sec (1546 sec)
gpgpu_simulation_rate = 46946 (inst/sec)
gpgpu_simulation_rate = 121 (cycle/sec)
gpgpu_silicon_slowdown = 9355371x
GPGPU-Sim: *** simulation thread exiting ***
GPGPU-Sim: ** break due to reaching the maximum cycles (or instructions) **
GPGPU-Sim: *** exit detected ***
