

        *** GPGPU-Sim Simulator Version 4.0.0  [build gpgpu-sim_git-commit-ffe0a1a00e984ecce9bf36e17ab94c4de0de8108_modified_0.0] ***


GPGPU-Sim PTX: simulation mode 0 (can change with PTX_SIM_MODE_FUNC environment variable:
               1=functional simulation only, 0=detailed performance simulator)
GPGPU-Sim PTX: overriding embedded ptx with ptx file (PTX_SIM_USE_PTX_FILE is set)
GPGPU-Sim: Configuration options:

-save_embedded_ptx                      0 # saves ptx files embedded in binary as <n>.ptx
-keep                                   0 # keep intermediate files created by GPGPU-Sim when interfacing with external programs
-gpgpu_ptx_save_converted_ptxplus                    0 # Saved converted ptxplus to a file
-gpgpu_occupancy_sm_number                   70 # The SM number to pass to ptxas when getting register usage for computing GPU occupancy. This parameter is required in the config.
-ptx_opcode_latency_int      4,13,4,5,145,21 # Opcode latencies for integers <ADD,MAX,MUL,MAD,DIV,SHFL>Default 1,1,19,25,145,32
-ptx_opcode_latency_fp          4,13,4,5,39 # Opcode latencies for single precision floating points <ADD,MAX,MUL,MAD,DIV>Default 1,1,1,1,30
-ptx_opcode_latency_dp         8,19,8,8,330 # Opcode latencies for double precision floating points <ADD,MAX,MUL,MAD,DIV>Default 8,8,8,8,335
-ptx_opcode_latency_sfu                  100 # Opcode latencies for SFU instructionsDefault 8
-ptx_opcode_latency_tesnor                   64 # Opcode latencies for Tensor instructionsDefault 64
-ptx_opcode_initiation_int          2,2,2,2,8,4 # Opcode initiation intervals for integers <ADD,MAX,MUL,MAD,DIV,SHFL>Default 1,1,4,4,32,4
-ptx_opcode_initiation_fp            2,2,2,2,4 # Opcode initiation intervals for single precision floating points <ADD,MAX,MUL,MAD,DIV>Default 1,1,1,1,5
-ptx_opcode_initiation_dp          4,4,4,4,130 # Opcode initiation intervals for double precision floating points <ADD,MAX,MUL,MAD,DIV>Default 8,8,8,8,130
-ptx_opcode_initiation_sfu                    8 # Opcode initiation intervals for sfu instructionsDefault 8
-ptx_opcode_initiation_tensor                   64 # Opcode initiation intervals for tensor instructionsDefault 64
-cdp_latency         7200,8000,100,12000,1600 # CDP API latency <cudaStreamCreateWithFlags, cudaGetParameterBufferV2_init_perWarp, cudaGetParameterBufferV2_perKernel, cudaLaunchDeviceV2_init_perWarp, cudaLaunchDevicV2_perKernel>Default 7200,8000,100,12000,1600
-network_mode                           2 # Interconnection network mode
-inter_config_file                   mesh # Interconnection network config file
-icnt_in_buffer_limit                  512 # in_buffer_limit
-icnt_out_buffer_limit                  512 # out_buffer_limit
-icnt_subnets                           2 # subnets
-icnt_arbiter_algo                      1 # arbiter_algo
-icnt_verbose                           0 # inct_verbose
-icnt_grant_cycles                      1 # grant_cycles
-gpgpu_ptx_use_cuobjdump                    1 # Use cuobjdump to extract ptx and sass from binaries
-gpgpu_experimental_lib_support                    0 # Try to extract code from cuda libraries [Broken because of unknown cudaGetExportTable]
-checkpoint_option                      0 #  checkpointing flag (0 = no checkpoint)
-checkpoint_kernel                      1 #  checkpointing during execution of which kernel (1- 1st kernel)
-checkpoint_CTA                         0 #  checkpointing after # of CTA (< less than total CTA)
-resume_option                          0 #  resume flag (0 = no resume)
-resume_kernel                          0 #  Resume from which kernel (1= 1st kernel)
-resume_CTA                             0 #  resume from which CTA 
-checkpoint_CTA_t                       0 #  resume from which CTA 
-checkpoint_insn_Y                      0 #  resume from which CTA 
-gpgpu_ptx_convert_to_ptxplus                    0 # Convert SASS (native ISA) to ptxplus and run ptxplus
-gpgpu_ptx_force_max_capability                   70 # Force maximum compute capability
-gpgpu_ptx_inst_debug_to_file                    0 # Dump executed instructions' debug information to file
-gpgpu_ptx_inst_debug_file       inst_debug.txt # Executed instructions' debug output file
-gpgpu_ptx_inst_debug_thread_uid                    1 # Thread UID for executed instructions' debug output
-gpgpu_n_mem_for_l2wb_pcommit                   32 # number of memory modules (e.g. memory controllers) in gpu
-gpgpu_n_sub_partition_per_mchannel_for_l2wb_pcommit                    2 # number of memory subpartition in each memory module
-gpgpu_dl2_bsize_for_l2wb_pcommit                  128 # default 128 bytes
-gpgpu_simd_model                       1 # 1 = post-dominator
-gpgpu_shader_core_pipeline              2048:32 # shader core pipeline config, i.e., {<nthread>:<warpsize>}
-gpgpu_tex_cache:l1  N:4:128:256,L:R:m:N:L,T:512:8,128:2 # per-shader L1 texture cache  (READ-ONLY) config  {<nsets>:<bsize>:<assoc>,<rep>:<wr>:<alloc>:<wr_alloc>,<mshr>:<N>:<merge>,<mq>:<rf>}
-gpgpu_const_cache:l1 N:128:64:8,L:R:f:N:L,S:2:64,4 # per-shader L1 constant memory cache  (READ-ONLY) config  {<nsets>:<bsize>:<assoc>,<rep>:<wr>:<alloc>:<wr_alloc>,<mshr>:<N>:<merge>,<mq>} 
-gpgpu_cache:il1     N:64:128:16,L:R:f:N:L,S:2:48,4 # shader L1 instruction cache config  {<nsets>:<bsize>:<assoc>,<rep>:<wr>:<alloc>:<wr_alloc>,<mshr>:<N>:<merge>,<mq>} 
-gpgpu_cache:dl1     S:1:128:256,L:L:s:N:L,A:256:8,16:0,32 # per-shader L1 data cache config  {<nsets>:<bsize>:<assoc>,<rep>:<wr>:<alloc>:<wr_alloc>,<mshr>:<N>:<merge>,<mq> | none}
-gpgpu_l1_banks                         4 # The number of L1 cache banks
-gpgpu_l1_banks_byte_interleaving                   32 # l1 banks byte interleaving granularity
-gpgpu_l1_banks_hashing_function                    0 # l1 banks hashing function
-gpgpu_l1_latency                      20 # L1 Hit Latency
-gpgpu_smem_latency                    20 # smem Latency
-gpgpu_cache:dl1PrefL1                 none # per-shader L1 data cache config  {<nsets>:<bsize>:<assoc>,<rep>:<wr>:<alloc>:<wr_alloc>,<mshr>:<N>:<merge>,<mq> | none}
-gpgpu_cache:dl1PrefShared                 none # per-shader L1 data cache config  {<nsets>:<bsize>:<assoc>,<rep>:<wr>:<alloc>:<wr_alloc>,<mshr>:<N>:<merge>,<mq> | none}
-gpgpu_gmem_skip_L1D                    0 # global memory access skip L1D cache (implements -Xptxas -dlcm=cg, default=no skip)
-gpgpu_perfect_mem                      0 # enable perfect memory mode (no cache miss)
-n_regfile_gating_group                    4 # group of lanes that should be read/written together)
-gpgpu_clock_gated_reg_file                    0 # enable clock gated reg file for power calculations
-gpgpu_clock_gated_lanes                    0 # enable clock gated lanes for power calculations
-gpgpu_shader_registers                65536 # Number of registers per shader core. Limits number of concurrent CTAs. (default 8192)
-gpgpu_registers_per_block                65536 # Maximum number of registers per CTA. (default 8192)
-gpgpu_ignore_resources_limitation                    0 # gpgpu_ignore_resources_limitation (default 0)
-gpgpu_shader_cta                      32 # Maximum number of concurrent CTAs in shader (default 8)
-gpgpu_num_cta_barriers                   16 # Maximum number of named barriers per CTA (default 16)
-gpgpu_n_clusters                      80 # number of processing clusters
-gpgpu_n_cores_per_cluster                    1 # number of simd cores per cluster
-gpgpu_n_cluster_ejection_buffer_size                   32 # number of packets in ejection buffer
-gpgpu_n_ldst_response_buffer_size                    2 # number of response packets in ld/st unit ejection buffer
-gpgpu_shmem_per_block                65536 # Size of shared memory per thread block or CTA (default 48kB)
-gpgpu_shmem_size                   98304 # Size of shared memory per shader core (default 16kB)
-gpgpu_adaptive_cache_config            536870913 # adaptive_cache_config
-gpgpu_shmem_sizeDefault                98304 # Size of shared memory per shader core (default 16kB)
-gpgpu_shmem_size_PrefL1                16384 # Size of shared memory per shader core (default 16kB)
-gpgpu_shmem_size_PrefShared                16384 # Size of shared memory per shader core (default 16kB)
-gpgpu_shmem_num_banks                   32 # Number of banks in the shared memory in each shader core (default 16)
-gpgpu_shmem_limited_broadcast                    0 # Limit shared memory to do one broadcast per cycle (default on)
-gpgpu_shmem_warp_parts                    1 # Number of portions a warp is divided into for shared memory bank conflict check 
-gpgpu_mem_unit_ports                    1 # The number of memory transactions allowed per core cycle
-gpgpu_shmem_warp_parts                    1 # Number of portions a warp is divided into for shared memory bank conflict check 
-gpgpu_warpdistro_shader                   -1 # Specify which shader core to collect the warp size distribution from
-gpgpu_warp_issue_shader                    0 # Specify which shader core to collect the warp issue distribution from
-gpgpu_local_mem_map                    1 # Mapping from local memory space address to simulated GPU physical address space (default = enabled)
-gpgpu_num_reg_banks                   16 # Number of register banks (default = 8)
-gpgpu_reg_bank_use_warp_id                    0 # Use warp ID in mapping registers to banks (default = off)
-gpgpu_sub_core_model                    1 # Sub Core Volta/Pascal model (default = off)
-gpgpu_enable_specialized_operand_collector                    0 # enable_specialized_operand_collector
-gpgpu_operand_collector_num_units_sp                    4 # number of collector units (default = 4)
-gpgpu_operand_collector_num_units_dp                    0 # number of collector units (default = 0)
-gpgpu_operand_collector_num_units_sfu                    4 # number of collector units (default = 4)
-gpgpu_operand_collector_num_units_int                    0 # number of collector units (default = 0)
-gpgpu_operand_collector_num_units_tensor_core                    4 # number of collector units (default = 4)
-gpgpu_operand_collector_num_units_mem                    2 # number of collector units (default = 2)
-gpgpu_operand_collector_num_units_gen                    8 # number of collector units (default = 0)
-gpgpu_operand_collector_num_in_ports_sp                    1 # number of collector unit in ports (default = 1)
-gpgpu_operand_collector_num_in_ports_dp                    0 # number of collector unit in ports (default = 0)
-gpgpu_operand_collector_num_in_ports_sfu                    1 # number of collector unit in ports (default = 1)
-gpgpu_operand_collector_num_in_ports_int                    0 # number of collector unit in ports (default = 0)
-gpgpu_operand_collector_num_in_ports_tensor_core                    1 # number of collector unit in ports (default = 1)
-gpgpu_operand_collector_num_in_ports_mem                    1 # number of collector unit in ports (default = 1)
-gpgpu_operand_collector_num_in_ports_gen                    8 # number of collector unit in ports (default = 0)
-gpgpu_operand_collector_num_out_ports_sp                    1 # number of collector unit in ports (default = 1)
-gpgpu_operand_collector_num_out_ports_dp                    0 # number of collector unit in ports (default = 0)
-gpgpu_operand_collector_num_out_ports_sfu                    1 # number of collector unit in ports (default = 1)
-gpgpu_operand_collector_num_out_ports_int                    0 # number of collector unit in ports (default = 0)
-gpgpu_operand_collector_num_out_ports_tensor_core                    1 # number of collector unit in ports (default = 1)
-gpgpu_operand_collector_num_out_ports_mem                    1 # number of collector unit in ports (default = 1)
-gpgpu_operand_collector_num_out_ports_gen                    8 # number of collector unit in ports (default = 0)
-gpgpu_coalesce_arch                   60 # Coalescing arch (GT200 = 13, Fermi = 20)
-gpgpu_num_sched_per_core                    4 # Number of warp schedulers per core
-gpgpu_max_insn_issue_per_warp                    1 # Max number of instructions that can be issued per warp in one cycle by scheduler (either 1 or 2)
-gpgpu_dual_issue_diff_exec_units                    1 # should dual issue use two different execution unit resources (Default = 1)
-gpgpu_simt_core_sim_order                    1 # Select the simulation order of cores in a cluster (0=Fix, 1=Round-Robin)
-gpgpu_pipeline_widths 4,4,4,4,4,4,4,4,4,4,8,4,4 # Pipeline widths ID_OC_SP,ID_OC_DP,ID_OC_INT,ID_OC_SFU,ID_OC_MEM,OC_EX_SP,OC_EX_DP,OC_EX_INT,OC_EX_SFU,OC_EX_MEM,EX_WB,ID_OC_TENSOR_CORE,OC_EX_TENSOR_CORE
-gpgpu_tensor_core_avail                    1 # Tensor Core Available (default=0)
-gpgpu_num_sp_units                     4 # Number of SP units (default=1)
-gpgpu_num_dp_units                     4 # Number of DP units (default=0)
-gpgpu_num_int_units                    4 # Number of INT units (default=0)
-gpgpu_num_sfu_units                    4 # Number of SF units (default=1)
-gpgpu_num_tensor_core_units                    4 # Number of tensor_core units (default=1)
-gpgpu_num_mem_units                    1 # Number if ldst units (default=1) WARNING: not hooked up to anything
-gpgpu_scheduler                      gto # Scheduler configuration: < lrr | gto | two_level_active > If two_level_active:<num_active_warps>:<inner_prioritization>:<outer_prioritization>For complete list of prioritization values see shader.h enum scheduler_prioritization_typeDefault: gto
-gpgpu_concurrent_kernel_sm                    0 # Support concurrent kernels on a SM (default = disabled)
-gpgpu_perfect_inst_const_cache                    1 # perfect inst and const cache mode, so all inst and const hits in the cache(default = disabled)
-gpgpu_inst_fetch_throughput                    4 # the number of fetched intruction per warp each cycle
-gpgpu_reg_file_port_throughput                    2 # the number ports of the register file
-specialized_unit_1         0,4,4,4,4,BRA # specialized unit config {<enabled>,<num_units>:<latency>:<initiation>,<ID_OC_SPEC>:<OC_EX_SPEC>,<NAME>}
-specialized_unit_2         0,4,4,4,4,BRA # specialized unit config {<enabled>,<num_units>:<latency>:<initiation>,<ID_OC_SPEC>:<OC_EX_SPEC>,<NAME>}
-specialized_unit_3         0,4,4,4,4,BRA # specialized unit config {<enabled>,<num_units>:<latency>:<initiation>,<ID_OC_SPEC>:<OC_EX_SPEC>,<NAME>}
-specialized_unit_4         0,4,4,4,4,BRA # specialized unit config {<enabled>,<num_units>:<latency>:<initiation>,<ID_OC_SPEC>:<OC_EX_SPEC>,<NAME>}
-specialized_unit_5         0,4,4,4,4,BRA # specialized unit config {<enabled>,<num_units>:<latency>:<initiation>,<ID_OC_SPEC>:<OC_EX_SPEC>,<NAME>}
-specialized_unit_6         0,4,4,4,4,BRA # specialized unit config {<enabled>,<num_units>:<latency>:<initiation>,<ID_OC_SPEC>:<OC_EX_SPEC>,<NAME>}
-specialized_unit_7         0,4,4,4,4,BRA # specialized unit config {<enabled>,<num_units>:<latency>:<initiation>,<ID_OC_SPEC>:<OC_EX_SPEC>,<NAME>}
-specialized_unit_8         0,4,4,4,4,BRA # specialized unit config {<enabled>,<num_units>:<latency>:<initiation>,<ID_OC_SPEC>:<OC_EX_SPEC>,<NAME>}
-gpgpu_perf_sim_memcpy                    1 # Fill the L2 cache on memcpy
-gpgpu_simple_dram_model                    0 # simple_dram_model with fixed latency and BW
-gpgpu_dram_scheduler                    1 # 0 = fifo, 1 = FR-FCFS (defaul)
-gpgpu_dram_partition_queues          64:64:64:64 # i2$:$2d:d2$:$2i
-l2_ideal                               0 # Use a ideal L2 cache that always hit
-gpgpu_cache:dl2     S:32:128:24,L:B:m:L:P,A:192:4,32:0,32 # unified banked L2 data cache config  {<nsets>:<bsize>:<assoc>,<rep>:<wr>:<alloc>:<wr_alloc>,<mshr>:<N>:<merge>,<mq>}
-gpgpu_cache:dl2_texture_only                    0 # L2 cache used for texture only
-gpgpu_n_mem                           32 # number of memory modules (e.g. memory controllers) in gpu
-gpgpu_n_sub_partition_per_mchannel                    2 # number of memory subpartition in each memory module
-gpgpu_n_mem_per_ctrlr                    1 # number of memory chips per memory controller
-gpgpu_memlatency_stat                   14 # track and display latency statistics 0x2 enables MC, 0x4 enables queue logs
-gpgpu_frfcfs_dram_sched_queue_size                   64 # 0 = unlimited (default); # entries per chip
-gpgpu_dram_return_queue_size                  192 # 0 = unlimited (default); # entries per chip
-gpgpu_dram_buswidth                   16 # default = 4 bytes (8 bytes per cycle at DDR)
-gpgpu_dram_burst_length                    2 # Burst length of each DRAM request (default = 4 data bus cycle)
-dram_data_command_freq_ratio                    2 # Frequency ratio between DRAM data bus and command bus (default = 2 times, i.e. DDR)
-gpgpu_dram_timing_opt nbk=16:CCD=1:RRD=3:RCD=12:RAS=28:RP=12:RC=40: CL=12:WL=2:CDLR=3:WR=10:nbkgrp=4:CCDL=2:RTPL=3 # DRAM timing parameters = {nbk:tCCD:tRRD:tRCD:tRAS:tRP:tRC:CL:WL:tCDLR:tWR:nbkgrp:tCCDL:tRTPL}
-gpgpu_l2_rop_latency                  160 # ROP queue latency (default 85)
-dram_latency                         200 # DRAM latency (default 30)
-dram_write_latency                   600 # DRAM write latency (default 100)
-dram_dual_bus_interface                    1 # dual_bus_interface (default = 0) 
-dram_bnk_indexing_policy                    0 # dram_bnk_indexing_policy (0 = normal indexing, 1 = Xoring with the higher bits) (Default = 0)
-dram_bnkgrp_indexing_policy                    1 # dram_bnkgrp_indexing_policy (0 = take higher bits, 1 = take lower bits) (Default = 0)
-dram_seperate_write_queue_enable                    0 # Seperate_Write_Queue_Enable
-dram_write_queue_size             32:28:16 # Write_Queue_Size
-dram_elimnate_rw_turnaround                    0 # elimnate_rw_turnaround i.e set tWTR and tRTW = 0
-icnt_flit_size                        40 # icnt_flit_size
-gpgpu_mem_addr_mapping dramid@8;00000000.00000000.00000000.00000000.0000RRRR.RRRRRRRR.RBBBCCCB.CCCSSSSS # mapping memory address to dram model {dramid@<start bit>;<memory address map>}
-gpgpu_mem_addr_test                    0 # run sweep test to check address mapping for aliased address
-gpgpu_mem_address_mask                    1 # 0 = old addressing mask, 1 = new addressing mask, 2 = new add. mask + flipped bank sel and chip sel bits
-gpgpu_memory_partition_indexing                    0 # 0 = no indexing, 1 = bitwise xoring, 2 = IPoly, 3 = custom indexing
-gpuwattch_xml_file         gpuwattch.xml # GPUWattch XML file
-power_simulation_enabled                    0 # Turn on power simulator (1=On, 0=Off)
-power_per_cycle_dump                    0 # Dump detailed power output each cycle
-power_trace_enabled                    0 # produce a file for the power trace (1=On, 0=Off)
-power_trace_zlevel                     6 # Compression level of the power trace output log (0=no comp, 9=highest)
-steady_power_levels_enabled                    0 # produce a file for the steady power levels (1=On, 0=Off)
-steady_state_definition                  8:4 # allowed deviation:number of samples
-gpgpu_max_cycle                        0 # terminates gpu simulation early (0 = no limit)
-gpgpu_max_insn                         0 # terminates gpu simulation early (0 = no limit)
-gpgpu_max_cta                          0 # terminates gpu simulation early (0 = no limit)
-gpgpu_max_completed_cta                 2048 # terminates gpu simulation early (0 = no limit)
-gpgpu_runtime_stat                   500 # display runtime statistics such as dram utilization {<freq>:<flag>}
-liveness_message_freq                    1 # Minimum number of seconds between simulation liveness messages (0 = always print)
-gpgpu_compute_capability_major                    7 # Major compute capability version number
-gpgpu_compute_capability_minor                    0 # Minor compute capability version number
-gpgpu_flush_l1_cache                    1 # Flush L1 cache at the end of each kernel call
-gpgpu_flush_l2_cache                    0 # Flush L2 cache at the end of each kernel call
-gpgpu_deadlock_detect                    1 # Stop the simulation at deadlock (1=on (default), 0=off)
-gpgpu_ptx_instruction_classification                    0 # if enabled will classify ptx instruction types per kernel (Max 255 kernels now)
-gpgpu_ptx_sim_mode                     0 # Select between Performance (default) or Functional simulation (1)
-gpgpu_clock_domains 1132.0:1132.0:1132.0:850.0 # Clock Domain Frequencies in MhZ {<Core Clock>:<ICNT Clock>:<L2 Clock>:<DRAM Clock>}
-gpgpu_max_concurrent_kernel                    8 # maximum kernels that can run concurrently on GPU
-gpgpu_cflog_interval                    0 # Interval between each snapshot in control flow logger
-visualizer_enabled               ef36522e2d45247004aa03edb85bd63f  /home/pli11/Videos/parboil_benchmark/parboil/benchmarks/stencil/build/nvm_default/stencil
Extracting PTX file and ptxas options    1: stencil.1.sm_70.ptx -arch=sm_70
      0 # Turn on visualizer output (1=On, 0=Off)
-visualizer_outputfile                 NULL # Specifies the output log file for visualizer
-visualizer_zlevel                      6 # Compression level of the visualizer output log (0=no comp, 9=highest)
-gpgpu_stack_size_limit                 1024 # GPU thread stack size
-gpgpu_heap_size_limit              8388608 # GPU malloc heap size 
-gpgpu_runtime_sync_depth_limit                    2 # GPU device runtime synchronize depth
-gpgpu_runtime_pending_launch_count_limit                 2048 # GPU device runtime pending launch count
-trace_enabled                          0 # Turn on traces
-trace_components                    none # comma seperated list of traces to enable. Complete list found in trace_streams.tup. Default none
-trace_sampling_core                    0 # The core which is printed using CORE_DPRINTF. Default 0
-trace_sampling_memory_partition                   -1 # The memory partition which is printed using MEMPART_DPRINTF. Default -1 (i.e. all)
-enable_ptx_file_line_stats                    1 # Turn on PTX source line statistic profiling. (1 = On)
-ptx_line_stats_filename gpgpu_inst_stats.txt # Output file for PTX source line statistics.
-gpgpu_kernel_launch_latency                 5000 # Kernel launch latency in cycles. Default: 0
-gpgpu_cdp_enabled                      0 # Turn on CDP
-gpgpu_TB_launch_latency                    0 # thread block launch latency in cycles. Default: 0
DRAM Timing Options:
nbk                                    16 # number of banks
CCD                                     1 # column to column delay
RRD                                     3 # minimal delay between activation of rows in different banks
RCD                                    12 # row to column delay
RAS                                    28 # time needed to activate row
RP                                     12 # time needed to precharge (deactivate) row
RC                                     40 # row cycle time
CDLR                                    3 # switching from write to read (changes tWTR)
WR                                     10 # last data-in to row precharge
CL                                     12 # CAS latency
WL                                      2 # Write latency
nbkgrp                                  4 # number of bank groups
CCDL                                    2 # column to column delay between accesses to different bank groups
RTPL                                    3 # read to precharge delay between accesses to different bank groups
Total number of memory sub partition = 64
addr_dec_mask[CHIP]  = 0000000000001f00 	high:13 low:8
addr_dec_mask[BK]    = 00000000000e2000 	high:20 low:13
addr_dec_mask[ROW]   = 00000001fff00000 	high:33 low:20
addr_dec_mask[COL]   = 000000000001c0ff 	high:17 low:0
addr_dec_mask[BURST] = 000000000000001f 	high:5 low:0
sub_partition_id_mask = 0000000000002000
GPGPU-Sim uArch: clock freqs: 1132000000.000000:1132000000.000000:1132000000.000000:850000000.000000
GPGPU-Sim uArch: clock periods: 0.00000000088339222615:0.00000000088339222615:0.00000000088339222615:0.00000000117647058824
*** Initializing Memory Statistics ***
GPGPU-Sim uArch: performance model initialization complete.
self exe links to: /home/pli11/Videos/parboil_benchmark/parboil/benchmarks/stencil/build/nvm_default/stencil
self exe links to: /home/pli11/Videos/parboil_benchmark/parboil/benchmarks/stencil/build/nvm_default/stencil
10.1
GPGPU-Sim PTX: __cudaRegisterFatBinary, fat_cubin_handle = 1, filename=default
self exe links to: /home/pli11/Videos/parboil_benchmark/parboil/benchmarks/stencil/build/nvm_default/stencil
Running md5sum using "md5sum /home/pli11/Videos/parboil_benchmark/parboil/benchmarks/stencil/build/nvm_default/stencil "
self exe links to: /home/pli11/Videos/parboil_benchmark/parboil/benchmarks/stencil/build/nvm_default/stencil
Extracting specific PTX file named stencil.1.sm_70.ptx 
GPGPU-Sim PTX: __cudaRegisterFunction _Z17naive_kernel_nvm5ffPfS_iii : hostFun 0x0x403527, fat_cubin_handle = 1
GPGPU-Sim PTX: Parsing stencil.1.sm_70.ptx
GPGPU-Sim PTX: allocating global region for "NVM_log" from 0x100 to 0x4000100 (global memory space)
GPGPU-Sim PTX: allocating global region for "NVM_flag" from 0x4000100 to 0x4400100 (global memory space)
GPGPU-Sim PTX: instruction assembly for function '_Z12naive_kernelffPfS_iii'...   done.
GPGPU-Sim PTX: instruction assembly for function '_Z17naive_kernel_nvmbffPfS_iii'...   done.
GPGPU-Sim PTX: instruction assembly for function '_Z17naive_kernel_nvmoffPfS_iii'...   done.
GPGPU-Sim PTX: instruction assembly for function '_Z17naive_kernel_nvmuffPfS_iii'...   done.
GPGPU-Sim PTX: instruction assembly for function '_Z17naive_kernel_nvm1ffPfS_iii'...   done.
GPGPU-Sim PTX: instruction assembly for function '_Z17naive_kernel_nvm2ffPfS_iii'...   done.
GPGPU-Sim PTX: instruction assembly for function '_Z17naive_kernel_nvmgffPfS_iii'...   done.
GPGPU-Sim PTX: instruction assembly for function '_Z17naive_kernel_nvm3ffPfS_iii'...   done.
GPGPU-Sim PTX: instruction assembly for function '_Z17naive_kernel_nvm4ffPfS_iii'...   done.
GPGPU-Sim PTX: instruction assembly for function '_Z17naive_kernel_nvmiffPfS_iii'...   done.
GPGPU-Sim PTX: instruction assembly for function '_Z17naive_kernel_nvm6ffPfS_iii'...   done.
GPGPU-Sim PTX: instruction assembly for function '_Z17naive_kernel_nvm5ffPfS_iii'...   done.
GPGPU-Sim PTX: finished parsing EMBEDDED .ptx file stencil.1.sm_70.ptx
GPGPU-Sim PTX: loading globals with explicit initializers... 
GPGPU-Sim PTX: finished loading globals (0 bytes total).
GPGPU-Sim PTX: loading constants with explicit initializers...  done.
GPGPU-Sim PTX: Loading PTXInfo from stencil.1.sm_70.ptx
GPGPU-Sim PTX: Kernel '_Z17naive_kernel_nvm5ffPfS_iii' : regs=21, lmem=0, smem=0, cmem=388
GPGPU-Sim PTX: Kernel '_Z17naive_kernel_nvm6ffPfS_iii' : regs=21, lmem=0, smem=0, cmem=388
GPGPU-Sim PTX: Kernel '_Z17naive_kernel_nvmiffPfS_iii' : regs=21, lmem=0, smem=0, cmem=388
GPGPU-Sim PTX: Kernel '_Z17naive_kernel_nvm4ffPfS_iii' : regs=23, lmem=0, smem=0, cmem=388
GPGPU-Sim PTX: Kernel '_Z17naive_kernel_nvm3ffPfS_iii' : regs=23, lmem=0, smem=0, cmem=388
GPGPU-Sim PTX: Kernel '_Z17naive_kernel_nvmgffPfS_iii' : regs=23, lmem=0, smem=0, cmem=388
GPGPU-Sim PTX: Kernel '_Z17naive_kernel_nvm2ffPfS_iii' : regs=22, lmem=0, smem=0, cmem=388
GPGPU-Sim PTX: Kernel '_Z17naive_kernel_nvm1ffPfS_iii' : regs=22, lmem=0, smem=0, cmem=388
GPGPU-Sim PTX: Kernel '_Z17naive_kernel_nvmuffPfS_iii' : regs=20, lmem=0, smem=0, cmem=388
GPGPU-Sim PTX: Kernel '_Z17naive_kernel_nvmoffPfS_iii' : regs=20, lmem=0, smem=0, cmem=388
GPGPU-Sim PTX: Kernel '_Z17naive_kernel_nvmbffPfS_iii' : regs=20, lmem=0, smem=0, cmem=388
GPGPU-Sim PTX: Kernel '_Z12naive_kernelffPfS_iii' : regs=20, lmem=0, smem=0, cmem=388
GPGPU-Sim PTX: __cudaRegisterFunction _Z17naive_kernel_nvm6ffPfS_iii : hostFun 0x0x40332e, fat_cubin_handle = 1
GPGPU-Sim PTX: __cudaRegisterFunction _Z17naive_kernel_nvmiffPfS_iii : hostFun 0x0x403135, fat_cubin_handle = 1
GPGPU-Sim PTX: __cudaRegisterFunction _Z17naive_kernel_nvm4ffPfS_iii : hostFun 0x0x402f3c, fat_cubin_handle = 1
GPGPU-Sim PTX: __cudaRegisterFunction _Z17naive_kernel_nvm3ffPfS_iii : hostFun 0x0x402d43, fat_cubin_handle = 1
GPGPU-Sim PTX: __cudaRegisterFunction _Z17naive_kernel_nvmgffPfS_iii : hostFun 0x0x402b4a, fat_cubin_handle = 1
GPGPU-Sim PTX: __cudaRegisterFunction _Z17naive_kernel_nvm2ffPfS_iii : hostFun 0x0x402951, fat_cubin_handle = 1
GPGPU-Sim PTX: __cudaRegisterFunction _Z17naive_kernel_nvm1ffPfS_iii : hostFun 0x0x402758, fat_cubin_handle = 1
GPGPU-Sim PTX: __cudaRegisterFunction _Z17naive_kernel_nvmuffPfS_iii : hostFun 0x0x40255f, fat_cubin_handle = 1
GPGPU-Sim PTX: __cudaRegisterFunction _Z17naive_kernel_nvmoffPfS_iii : hostFun 0x0x402366, fat_cubin_handle = 1
GPGPU-Sim PTX: __cudaRegisterFunction _Z17naive_kernel_nvmbffPfS_iii : hostFun 0x0x40216d, fat_cubin_handle = 1
GPGPU-Sim PTX: __cudaRegisterFunction _Z12naive_kernelffPfS_iii : hostFun 0x0x401f74, fat_cubin_handle = 1
GPGPU-Sim PTX: __cudaRegisterVar: hostVar = 0x6091c0; deviceAddress = NVM_log; deviceName = NVM_log
GPGPU-Sim PTX: __cudaRegisterVar: Registering const memory space of 67108864 bytes
GPGPU-Sim PTX registering global NVM_log hostVar to name mapping
GPGPU-Sim PTX: __cudaRegisterVar: hostVar = 0x46091c0; deviceAddress = NVM_flag; deviceName = NVM_flag
GPGPU-Sim PTX: __cudaRegisterVar: Registering const memory space of 4194304 bytes
GPGPU-Sim PTX registering global NVM_flag hostVar to name mapping
CUDA accelerated 7 points stencil codes****
Original version by Li-Wen Chang <lchang20@illinois.edu> and I-Jui Sung<sung10@illinois.edu>
This version maintained by Chris Rodrigues  ***********
GPGPU-Sim: synchronize waiting for inactive GPU simulation
GPGPU-Sim API: Stream Manager State
GPGPU-Sim: detected inactive GPU simulation thread
event update
GPGPU-Sim: synchronize waiting for inactive GPU simulation
GPGPU-Sim API: Stream Manager State
GPGPU-Sim: detected inactive GPU simulation thread
GPGPU-Sim PTX: Setting up arguments for 4 bytes starting at 0x7fff7bdb910c..
GPGPU-Sim PTX: Setting up arguments for 4 bytes starting at 0x7fff7bdb9108..
GPGPU-Sim PTX: Setting up arguments for 8 bytes starting at 0x7fff7bdb9100..
GPGPU-Sim PTX: Setting up arguments for 8 bytes starting at 0x7fff7bdb90f8..
GPGPU-Sim PTX: Setting up arguments for 4 bytes starting at 0x7fff7bdb90f4..
GPGPU-Sim PTX: Setting up arguments for 4 bytes starting at 0x7fff7bdb90f0..
GPGPU-Sim PTX: Setting up arguments for 4 bytes starting at 0x7fff7bdb90ec..

GPGPU-Sim PTX: cudaLaunch for 0x0x401f74 (mode=performance simulation) on stream 0
GPGPU-Sim PTX: finding reconvergence points for '_Z12naive_kernelffPfS_iii'...
GPGPU-Sim PTX: Finding dominators for '_Z12naive_kernelffPfS_iii'...
GPGPU-Sim PTX: Finding immediate dominators for '_Z12naive_kernelffPfS_iii'...
GPGPU-Sim PTX: Finding postdominators for '_Z12naive_kernelffPfS_iii'...
GPGPU-Sim PTX: Finding immediate postdominators for '_Z12naive_kernelffPfS_iii'...
GPGPU-Sim PTX: pre-decoding instructions for '_Z12naive_kernelffPfS_iii'...
GPGPU-Sim PTX: reconvergence points for _Z12naive_kernelffPfS_iii...
GPGPU-Sim PTX:  1 (potential) branch divergence @  PC=0x040 (stencil.1.sm_70.ptx:41) @%p1 bra BB0_2;
GPGPU-Sim PTX:    immediate post dominator      @  PC=0x1b0 (stencil.1.sm_70.ptx:90) ret;
GPGPU-Sim PTX: ... end of reconvergence points for _Z12naive_kernelffPfS_iii
GPGPU-Sim PTX: ... done pre-decoding instructions for '_Z12naive_kernelffPfS_iii'.
GPGPU-Sim PTX: pushing kernel '_Z12naive_kernelffPfS_iii' to stream 0, gridDim= (510,62,1) blockDim = (511,1,1) 
GPGPU-Sim uArch: Shader 0 bind to kernel 1 '_Z12naive_kernelffPfS_iii'
GPGPU-Sim uArch: CTA/core = 4, limited by: threads
GPGPU-Sim: Reconfigure L1 cache to 128KB
GPGPU-Sim uArch: Shader 1 bind to kernel 1 '_Z12naive_kernelffPfS_iii'
GPGPU-Sim uArch: Shader 2 bind to kernel 1 '_Z12naive_kernelffPfS_iii'
GPGPU-Sim uArch: Shader 3 bind to kernel 1 '_Z12naive_kernelffPfS_iii'
GPGPU-Sim uArch: Shader 4 bind to kernel 1 '_Z12naive_kernelffPfS_iii'
GPGPU-Sim uArch: Shader 5 bind to kernel 1 '_Z12naive_kernelffPfS_iii'
GPGPU-Sim uArch: Shader 6 bind to kernel 1 '_Z12naive_kernelffPfS_iii'
GPGPU-Sim uArch: Shader 7 bind to kernel 1 '_Z12naive_kernelffPfS_iii'
GPGPU-Sim uArch: Shader 8 bind to kernel 1 '_Z12naive_kernelffPfS_iii'
GPGPU-Sim uArch: Shader 9 bind to kernel 1 '_Z12naive_kernelffPfS_iii'
GPGPU-Sim uArch: Shader 10 bind to kernel 1 '_Z12naive_kernelffPfS_iii'
GPGPU-Sim uArch: Shader 11 bind to kernel 1 '_Z12naive_kernelffPfS_iii'
GPGPU-Sim uArch: Shader 12 bind to kernel 1 '_Z12naive_kernelffPfS_iii'
GPGPU-Sim uArch: Shader 13 bind to kernel 1 '_Z12naive_kernelffPfS_iii'
GPGPU-Sim uArch: Shader 14 bind to kernel 1 '_Z12naive_kernelffPfS_iii'
GPGPU-Sim uArch: Shader 15 bind to kernel 1 '_Z12naive_kernelffPfS_iii'
GPGPU-Sim uArch: Shader 16 bind to kernel 1 '_Z12naive_kernelffPfS_iii'
GPGPU-Sim uArch: Shader 17 bind to kernel 1 '_Z12naive_kernelffPfS_iii'
GPGPU-Sim uArch: Shader 18 bind to kernel 1 '_Z12naive_kernelffPfS_iii'
GPGPU-Sim uArch: Shader 19 bind to kernel 1 '_Z12naive_kernelffPfS_iii'
GPGPU-Sim uArch: Shader 20 bind to kernel 1 '_Z12naive_kernelffPfS_iii'
GPGPU-Sim uArch: Shader 21 bind to kernel 1 '_Z12naive_kernelffPfS_iii'
GPGPU-Sim uArch: Shader 22 bind to kernel 1 '_Z12naive_kernelffPfS_iii'
GPGPU-Sim uArch: Shader 23 bind to kernel 1 '_Z12naive_kernelffPfS_iii'
GPGPU-Sim uArch: Shader 24 bind to kernel 1 '_Z12naive_kernelffPfS_iii'
GPGPU-Sim uArch: Shader 25 bind to kernel 1 '_Z12naive_kernelffPfS_iii'
GPGPU-Sim uArch: Shader 26 bind to kernel 1 '_Z12naive_kernelffPfS_iii'
GPGPU-Sim uArch: Shader 27 bind to kernel 1 '_Z12naive_kernelffPfS_iii'
GPGPU-Sim uArch: Shader 28 bind to kernel 1 '_Z12naive_kernelffPfS_iii'
GPGPU-Sim uArch: Shader 29 bind to kernel 1 '_Z12naive_kernelffPfS_iii'
GPGPU-Sim uArch: Shader 30 bind to kernel 1 '_Z12naive_kernelffPfS_iii'
GPGPU-Sim uArch: Shader 31 bind to kernel 1 '_Z12naive_kernelffPfS_iii'
GPGPU-Sim uArch: Shader 32 bind to kernel 1 '_Z12naive_kernelffPfS_iii'
GPGPU-Sim uArch: Shader 33 bind to kernel 1 '_Z12naive_kernelffPfS_iii'
GPGPU-Sim uArch: Shader 34 bind to kernel 1 '_Z12naive_kernelffPfS_iii'
GPGPU-Sim uArch: Shader 35 bind to kernel 1 '_Z12naive_kernelffPfS_iii'
GPGPU-Sim uArch: Shader 36 bind to kernel 1 '_Z12naive_kernelffPfS_iii'
GPGPU-Sim uArch: Shader 37 bind to kernel 1 '_Z12naive_kernelffPfS_iii'
GPGPU-Sim uArch: Shader 38 bind to kernel 1 '_Z12naive_kernelffPfS_iii'
GPGPU-Sim uArch: Shader 39 bind to kernel 1 '_Z12naive_kernelffPfS_iii'
GPGPU-Sim uArch: Shader 40 bind to kernel 1 '_Z12naive_kernelffPfS_iii'
GPGPU-Sim uArch: Shader 41 bind to kernel 1 '_Z12naive_kernelffPfS_iii'
GPGPU-Sim uArch: Shader 42 bind to kernel 1 '_Z12naive_kernelffPfS_iii'
GPGPU-Sim uArch: Shader 43 bind to kernel 1 '_Z12naive_kernelffPfS_iii'
GPGPU-Sim uArch: Shader 44 bind to kernel 1 '_Z12naive_kernelffPfS_iii'
GPGPU-Sim uArch: Shader 45 bind to kernel 1 '_Z12naive_kernelffPfS_iii'
GPGPU-Sim uArch: Shader 46 bind to kernel 1 '_Z12naive_kernelffPfS_iii'
GPGPU-Sim uArch: Shader 47 bind to kernel 1 '_Z12naive_kernelffPfS_iii'
GPGPU-Sim uArch: Shader 48 bind to kernel 1 '_Z12naive_kernelffPfS_iii'
GPGPU-Sim uArch: Shader 49 bind to kernel 1 '_Z12naive_kernelffPfS_iii'
GPGPU-Sim uArch: Shader 50 bind to kernel 1 '_Z12naive_kernelffPfS_iii'
GPGPU-Sim uArch: Shader 51 bind to kernel 1 '_Z12naive_kernelffPfS_iii'
GPGPU-Sim uArch: Shader 52 bind to kernel 1 '_Z12naive_kernelffPfS_iii'
GPGPU-Sim uArch: Shader 53 bind to kernel 1 '_Z12naive_kernelffPfS_iii'
GPGPU-Sim uArch: Shader 54 bind to kernel 1 '_Z12naive_kernelffPfS_iii'
GPGPU-Sim uArch: Shader 55 bind to kernel 1 '_Z12naive_kernelffPfS_iii'
GPGPU-Sim uArch: Shader 56 bind to kernel 1 '_Z12naive_kernelffPfS_iii'
GPGPU-Sim uArch: Shader 57 bind to kernel 1 '_Z12naive_kernelffPfS_iii'
GPGPU-Sim uArch: Shader 58 bind to kernel 1 '_Z12naive_kernelffPfS_iii'
GPGPU-Sim uArch: Shader 59 bind to kernel 1 '_Z12naive_kernelffPfS_iii'
GPGPU-Sim uArch: Shader 60 bind to kernel 1 '_Z12naive_kernelffPfS_iii'
GPGPU-Sim uArch: Shader 61 bind to kernel 1 '_Z12naive_kernelffPfS_iii'
GPGPU-Sim uArch: Shader 62 bind to kernel 1 '_Z12naive_kernelffPfS_iii'
GPGPU-Sim uArch: Shader 63 bind to kernel 1 '_Z12naive_kernelffPfS_iii'
GPGPU-Sim uArch: Shader 64 bind to kernel 1 '_Z12naive_kernelffPfS_iii'
GPGPU-Sim uArch: Shader 65 bind to kernel 1 '_Z12naive_kernelffPfS_iii'
GPGPU-Sim uArch: Shader 66 bind to kernel 1 '_Z12naive_kernelffPfS_iii'
GPGPU-Sim uArch: Shader 67 bind to kernel 1 '_Z12naive_kernelffPfS_iii'
GPGPU-Sim uArch: Shader 68 bind to kernel 1 '_Z12naive_kernelffPfS_iii'
GPGPU-Sim uArch: Shader 69 bind to kernel 1 '_Z12naive_kernelffPfS_iii'
GPGPU-Sim uArch: Shader 70 bind to kernel 1 '_Z12naive_kernelffPfS_iii'
GPGPU-Sim uArch: Shader 71 bind to kernel 1 '_Z12naive_kernelffPfS_iii'
GPGPU-Sim uArch: Shader 72 bind to kernel 1 '_Z12naive_kernelffPfS_iii'
GPGPU-Sim uArch: Shader 73 bind to kernel 1 '_Z12naive_kernelffPfS_iii'
GPGPU-Sim uArch: Shader 74 bind to kernel 1 '_Z12naive_kernelffPfS_iii'
GPGPU-Sim uArch: Shader 75 bind to kernel 1 '_Z12naive_kernelffPfS_iii'
GPGPU-Sim uArch: Shader 76 bind to kernel 1 '_Z12naive_kernelffPfS_iii'
GPGPU-Sim uArch: Shader 77 bind to kernel 1 '_Z12naive_kernelffPfS_iii'
GPGPU-Sim uArch: Shader 78 bind to kernel 1 '_Z12naive_kernelffPfS_iii'
GPGPU-Sim uArch: Shader 79 bind to kernel 1 '_Z12naive_kernelffPfS_iii'
kernel_name = _Z12naive_kernelffPfS_iii 
kernel_launch_uid = 1 
gpu_sim_cycle = 33765
gpu_sim_insn = 62373908
gpu_ipc =    1847.2948
gpu_tot_sim_cycle = 33765
gpu_tot_sim_insn = 62373908
gpu_tot_ipc =    1847.2948
gpu_tot_issued_cta = 2368
gpu_occupancy = 95.2648% 
gpu_tot_occupancy = 95.2648% 
max_total_param_size = 0
gpu_stall_dramfull = 11851
gpu_stall_icnt2sh    = 0
partiton_level_parallism =      25.1601
partiton_level_parallism_total  =      25.1601
partiton_level_parallism_util =      30.0996
partiton_level_parallism_util_total  =      30.0996
L2_BW  =     903.4350 GB/Sec
L2_BW_total  =     903.4350 GB/Sec
gpu_total_sim_rate=141758
############## bottleneck_stats #############
cycles: core 33765, icnt 33765, l2 33765, dram 25353
gpu_ipc	1847.295
gpu_tot_issued_cta = 2368, average cycles = 14
n_dram_writes	 0, n_dram_reads	 0
n_GLOBAL_ACC_R	 211944 
n_LOCAL_ACC_R	 0 
n_CONST_ACC_R	 0 
n_TEXTURE_ACC_R	 0 
n_GLOBAL_ACC_W	 0 
n_LOCAL_ACC_W	 0 
n_L1_WRBK_ACC	 0 
n_L2_WRBK_ACC	 15984 
n_L1_WR_ALLOC_R	 0 
n_L2_WR_ALLOC_R	 0 

n_sm	 80, n_schedulers	 4
scheduler util	0.185	80
L1D data util	1.380	80	1.485	61
L1D tag util	0.445	80	0.477	66
L2 data util	0.640	64	0.646	32
L2 tag util	0.391	64	0.400	35
n_l2_access	 844995
icnt s2m util	0.000	0	0.000	35	flits per packet: -nan
icnt m2s util	0.000	0	0.000	35	flits per packet: -nan
sum=0
n_mem	 32
dram util	0.340	32	0.342	16

latency_l1_hit:	6251500, num_l1_reqs:	312575
L1 hit latency:	20
latency_l2_hit:	178191127, num_l2_reqs:	496152
L2 hit latency:	359
latency_dram:	321611684, num_dram_reqs:	345633
DRAM latency:	930

n_reg	65536, n_smem	98304, n_thread	2048, n_tb	32
reg file	0.625
smem size	0.000
thread slot	1.000
TB slot    	0.125
L1I tag util	0.377	80	0.406	71

n_mem_pipe	1, n_sp_pipe	4, n_sfu_pipe	4
mem pipe util	0.189	80	0.203	61
sp pipe util	0.052	80	0.055	66
sfu pipe util	0.000	0	0.000	66
ldst mem cycle	0.000	0	0.000	66

smem port	0.000	0

n_reg_bank	16
reg port	0.110	16	0.119	1
L1D tag util	0.445	80	0.477	66
L1D fill util	0.262	80	0.282	61
n_l1d_mshr	4096
L1D mshr util	0.041	80
n_l1d_missq	16
L1D missq util	0.020	80
L1D hit rate	0.260
L1D miss rate	0.740
L1D rsfail rate	0.000
L2 tag util	0.391	64	0.400	35
L2 fill util	0.098	64	0.098	1
n_l2_mshr	192
n_l2_missq	32
L2 mshr util	0.224	64	0.233	39
L2 missq util	0.004	64	0.004	11
L2 hit rate	0.588
L2 miss rate	0.411
L2 rsfail rate	0.002

dram activity	0.490	32	0.498	26

load trans eff	0.935
load trans sz	32.000
load_useful_bytes 32035368, load_transaction_bytes 34257376, icnt_m2s_bytes 0
n_gmem_load_insns 251259, n_gmem_load_accesses 1070543
n_smem_access_insn 0, n_smem_accesses 0

tmp_counter/12	0.402

run 0.017, fetch 0.064, sync 0.063, control 0.000, data 0.829, struct 0.028
############ end_bottleneck_stats #############

========= Core cache stats =========
L1I_cache:
	L1I_total_cache_accesses = 0
	L1I_total_cache_misses = 0
	L1I_total_cache_pending_hits = 0
	L1I_total_cache_reservation_fails = 0
L1D_cache:
	L1D_cache_core[0]: Access = 14597, Miss = 10955, Miss_rate = 0.750, Pending_hits = 0, Reservation_fails = 0
	L1D_cache_core[1]: Access = 14947, Miss = 11192, Miss_rate = 0.749, Pending_hits = 0, Reservation_fails = 0
	L1D_cache_core[2]: Access = 14232, Miss = 10749, Miss_rate = 0.755, Pending_hits = 0, Reservation_fails = 0
	L1D_cache_core[3]: Access = 14328, Miss = 10765, Miss_rate = 0.751, Pending_hits = 0, Reservation_fails = 0
	L1D_cache_core[4]: Access = 14660, Miss = 10816, Miss_rate = 0.738, Pending_hits = 0, Reservation_fails = 0
	L1D_cache_core[5]: Access = 14686, Miss = 10922, Miss_rate = 0.744, Pending_hits = 0, Reservation_fails = 0
	L1D_cache_core[6]: Access = 14888, Miss = 10754, Miss_rate = 0.722, Pending_hits = 0, Reservation_fails = 0
	L1D_cache_core[7]: Access = 15469, Miss = 11199, Miss_rate = 0.724, Pending_hits = 0, Reservation_fails = 0
	L1D_cache_core[8]: Access = 15295, Miss = 11129, Miss_rate = 0.728, Pending_hits = 0, Reservation_fails = 0
	L1D_cache_core[9]: Access = 14490, Miss = 10888, Miss_rate = 0.751, Pending_hits = 0, Reservation_fails = 0
	L1D_cache_core[10]: Access = 15480, Miss = 11489, Miss_rate = 0.742, Pending_hits = 0, Reservation_fails = 0
	L1D_cache_core[11]: Access = 15241, Miss = 11159, Miss_rate = 0.732, Pending_hits = 0, Reservation_fails = 0
	L1D_cache_core[12]: Access = 14841, Miss = 10930, Miss_rate = 0.736, Pending_hits = 0, Reservation_fails = 0
	L1D_cache_core[13]: Access = 14664, Miss = 10890, Miss_rate = 0.743, Pending_hits = 0, Reservation_fails = 0
	L1D_cache_core[14]: Access = 14829, Miss = 10888, Miss_rate = 0.734, Pending_hits = 0, Reservation_fails = 0
	L1D_cache_core[15]: Access = 15127, Miss = 11133, Miss_rate = 0.736, Pending_hits = 0, Reservation_fails = 0
	L1D_cache_core[16]: Access = 14901, Miss = 11154, Miss_rate = 0.749, Pending_hits = 0, Reservation_fails = 0
	L1D_cache_core[17]: Access = 14527, Miss = 10893, Miss_rate = 0.750, Pending_hits = 0, Reservation_fails = 0
	L1D_cache_core[18]: Access = 14919, Miss = 10815, Miss_rate = 0.725, Pending_hits = 0, Reservation_fails = 0
	L1D_cache_core[19]: Access = 14942, Miss = 11014, Miss_rate = 0.737, Pending_hits = 0, Reservation_fails = 0
	L1D_cache_core[20]: Access = 14670, Miss = 10840, Miss_rate = 0.739, Pending_hits = 0, Reservation_fails = 0
	L1D_cache_core[21]: Access = 14998, Miss = 11247, Miss_rate = 0.750, Pending_hits = 0, Reservation_fails = 0
	L1D_cache_core[22]: Access = 14995, Miss = 11057, Miss_rate = 0.737, Pending_hits = 0, Reservation_fails = 0
	L1D_cache_core[23]: Access = 14875, Miss = 10963, Miss_rate = 0.737, Pending_hits = 0, Reservation_fails = 0
	L1D_cache_core[24]: Access = 14275, Miss = 10645, Miss_rate = 0.746, Pending_hits = 0, Reservation_fails = 0
	L1D_cache_core[25]: Access = 14540, Miss = 10867, Miss_rate = 0.747, Pending_hits = 0, Reservation_fails = 0
	L1D_cache_core[26]: Access = 15182, Miss = 11280, Miss_rate = 0.743, Pending_hits = 0, Reservation_fails = 0
	L1D_cache_core[27]: Access = 14793, Miss = 10973, Miss_rate = 0.742, Pending_hits = 0, Reservation_fails = 0
	L1D_cache_core[28]: Access = 14610, Miss = 10736, Miss_rate = 0.735, Pending_hits = 0, Reservation_fails = 0
	L1D_cache_core[29]: Access = 14186, Miss = 10599, Miss_rate = 0.747, Pending_hits = 0, Reservation_fails = 0
	L1D_cache_core[30]: Access = 15197, Miss = 11067, Miss_rate = 0.728, Pending_hits = 0, Reservation_fails = 0
	L1D_cache_core[31]: Access = 15359, Miss = 11179, Miss_rate = 0.728, Pending_hits = 0, Reservation_fails = 0
	L1D_cache_core[32]: Access = 14602, Miss = 10951, Miss_rate = 0.750, Pending_hits = 0, Reservation_fails = 0
	L1D_cache_core[33]: Access = 14609, Miss = 10803, Miss_rate = 0.739, Pending_hits = 0, Reservation_fails = 0
	L1D_cache_core[34]: Access = 14664, Miss = 10626, Miss_rate = 0.725, Pending_hits = 0, Reservation_fails = 0
	L1D_cache_core[35]: Access = 15099, Miss = 10657, Miss_rate = 0.706, Pending_hits = 0, Reservation_fails = 0
	L1D_cache_core[36]: Access = 14727, Miss = 10991, Miss_rate = 0.746, Pending_hits = 0, Reservation_fails = 0
	L1D_cache_core[37]: Access = 14530, Miss = 10909, Miss_rate = 0.751, Pending_hits = 0, Reservation_fails = 0
	L1D_cache_core[38]: Access = 14727, Miss = 11014, Miss_rate = 0.748, Pending_hits = 0, Reservation_fails = 0
	L1D_cache_core[39]: Access = 14891, Miss = 10905, Miss_rate = 0.732, Pending_hits = 0, Reservation_fails = 0
	L1D_cache_core[40]: Access = 14837, Miss = 10882, Miss_rate = 0.733, Pending_hits = 0, Reservation_fails = 0
	L1D_cache_core[41]: Access = 14472, Miss = 10765, Miss_rate = 0.744, Pending_hits = 0, Reservation_fails = 0
	L1D_cache_core[42]: Access = 15181, Miss = 11216, Miss_rate = 0.739, Pending_hits = 0, Reservation_fails = 0
	L1D_cache_core[43]: Access = 14442, Miss = 10873, Miss_rate = 0.753, Pending_hits = 0, Reservation_fails = 0
	L1D_cache_core[44]: Access = 14523, Miss = 10771, Miss_rate = 0.742, Pending_hits = 0, Reservation_fails = 0
	L1D_cache_core[45]: Access = 15159, Miss = 11302, Miss_rate = 0.746, Pending_hits = 0, Reservation_fails = 0
	L1D_cache_core[46]: Access = 14804, Miss = 10936, Miss_rate = 0.739, Pending_hits = 0, Reservation_fails = 0
	L1D_cache_core[47]: Access = 14343, Miss = 10715, Miss_rate = 0.747, Pending_hits = 0, Reservation_fails = 0
	L1D_cache_core[48]: Access = 15515, Miss = 11369, Miss_rate = 0.733, Pending_hits = 0, Reservation_fails = 0
	L1D_cache_core[49]: Access = 15548, Miss = 11342, Miss_rate = 0.729, Pending_hits = 0, Reservation_fails = 0
	L1D_cache_core[50]: Access = 15678, Miss = 11577, Miss_rate = 0.738, Pending_hits = 0, Reservation_fails = 0
	L1D_cache_core[51]: Access = 15489, Miss = 11230, Miss_rate = 0.725, Pending_hits = 0, Reservation_fails = 0
	L1D_cache_core[52]: Access = 14184, Miss = 10702, Miss_rate = 0.755, Pending_hits = 0, Reservation_fails = 0
	L1D_cache_core[53]: Access = 15572, Miss = 11567, Miss_rate = 0.743, Pending_hits = 0, Reservation_fails = 0
	L1D_cache_core[54]: Access = 15044, Miss = 10843, Miss_rate = 0.721, Pending_hits = 0, Reservation_fails = 0
	L1D_cache_core[55]: Access = 14886, Miss = 11075, Miss_rate = 0.744, Pending_hits = 0, Reservation_fails = 0
	L1D_cache_core[56]: Access = 15175, Miss = 11088, Miss_rate = 0.731, Pending_hits = 0, Reservation_fails = 0
	L1D_cache_core[57]: Access = 14859, Miss = 11091, Miss_rate = 0.746, Pending_hits = 0, Reservation_fails = 0
	L1D_cache_core[58]: Access = 15739, Miss = 11614, Miss_rate = 0.738, Pending_hits = 0, Reservation_fails = 0
	L1D_cache_core[59]: Access = 15632, Miss = 11606, Miss_rate = 0.742, Pending_hits = 0, Reservation_fails = 0
	L1D_cache_core[60]: Access = 14525, Miss = 10927, Miss_rate = 0.752, Pending_hits = 0, Reservation_fails = 0
	L1D_cache_core[61]: Access = 15981, Miss = 12017, Miss_rate = 0.752, Pending_hits = 0, Reservation_fails = 0
	L1D_cache_core[62]: Access = 14878, Miss = 10921, Miss_rate = 0.734, Pending_hits = 0, Reservation_fails = 0
	L1D_cache_core[63]: Access = 15246, Miss = 11274, Miss_rate = 0.739, Pending_hits = 0, Reservation_fails = 0
	L1D_cache_core[64]: Access = 15596, Miss = 11518, Miss_rate = 0.739, Pending_hits = 0, Reservation_fails = 0
	L1D_cache_core[65]: Access = 14954, Miss = 11113, Miss_rate = 0.743, Pending_hits = 0, Reservation_fails = 0
	L1D_cache_core[66]: Access = 16107, Miss = 11862, Miss_rate = 0.736, Pending_hits = 0, Reservation_fails = 0
	L1D_cache_core[67]: Access = 15506, Miss = 11448, Miss_rate = 0.738, Pending_hits = 0, Reservation_fails = 0
	L1D_cache_core[68]: Access = 15855, Miss = 11681, Miss_rate = 0.737, Pending_hits = 0, Reservation_fails = 0
	L1D_cache_core[69]: Access = 15675, Miss = 11585, Miss_rate = 0.739, Pending_hits = 0, Reservation_fails = 0
	L1D_cache_core[70]: Access = 15873, Miss = 11782, Miss_rate = 0.742, Pending_hits = 0, Reservation_fails = 0
	L1D_cache_core[71]: Access = 15935, Miss = 11723, Miss_rate = 0.736, Pending_hits = 0, Reservation_fails = 0
	L1D_cache_core[72]: Access = 15299, Miss = 11442, Miss_rate = 0.748, Pending_hits = 0, Reservation_fails = 0
	L1D_cache_core[73]: Access = 15328, Miss = 11432, Miss_rate = 0.746, Pending_hits = 0, Reservation_fails = 0
	L1D_cache_core[74]: Access = 14799, Miss = 11123, Miss_rate = 0.752, Pending_hits = 0, Reservation_fails = 0
	L1D_cache_core[75]: Access = 15848, Miss = 11903, Miss_rate = 0.751, Pending_hits = 0, Reservation_fails = 0
	L1D_cache_core[76]: Access = 15585, Miss = 11515, Miss_rate = 0.739, Pending_hits = 0, Reservation_fails = 0
	L1D_cache_core[77]: Access = 15676, Miss = 11656, Miss_rate = 0.744, Pending_hits = 0, Reservation_fails = 0
	L1D_cache_core[78]: Access = 15796, Miss = 11886, Miss_rate = 0.752, Pending_hits = 0, Reservation_fails = 0
	L1D_cache_core[79]: Access = 15010, Miss = 11156, Miss_rate = 0.743, Pending_hits = 0, Reservation_fails = 0
	L1D_total_cache_accesses = 1203146
	L1D_total_cache_misses = 890571
	L1D_total_cache_miss_rate = 0.7402
	L1D_total_cache_pending_hits = 0
	L1D_total_cache_reservation_fails = 0
	L1D_cache_data_port_util = 0.136
	L1D_cache_fill_port_util = 0.308
L1C_cache:
	L1C_total_cache_accesses = 0
	L1C_total_cache_misses = 0
	L1C_total_cache_pending_hits = 0
	L1C_total_cache_reservation_fails = 0
L1T_cache:
	L1T_total_cache_accesses = 0
	L1T_total_cache_misses = 0
	L1T_total_cache_pending_hits = 0
	L1T_total_cache_reservation_fails = 0

Total_core_cache_stats:
	Total_core_cache_stats_breakdown[GLOBAL_ACC_R][HIT] = 312575
	Total_core_cache_stats_breakdown[GLOBAL_ACC_R][HIT_RESERVED] = 0
	Total_core_cache_stats_breakdown[GLOBAL_ACC_R][MISS] = 663964
	Total_core_cache_stats_breakdown[GLOBAL_ACC_R][RESERVATION_FAIL] = 0
	Total_core_cache_stats_breakdown[GLOBAL_ACC_R][SECTOR_MISS] = 91214
	Total_core_cache_stats_breakdown[LOCAL_ACC_R][HIT] = 0
	Total_core_cache_stats_breakdown[LOCAL_ACC_R][HIT_RESERVED] = 0
	Total_core_cache_stats_breakdown[LOCAL_ACC_R][MISS] = 0
	Total_core_cache_stats_breakdown[LOCAL_ACC_R][RESERVATION_FAIL] = 0
	Total_core_cache_stats_breakdown[LOCAL_ACC_R][SECTOR_MISS] = 0
	Total_core_cache_stats_breakdown[CONST_ACC_R][HIT] = 0
	Total_core_cache_stats_breakdown[CONST_ACC_R][HIT_RESERVED] = 0
	Total_core_cache_stats_breakdown[CONST_ACC_R][MISS] = 0
	Total_core_cache_stats_breakdown[CONST_ACC_R][RESERVATION_FAIL] = 0
	Total_core_cache_stats_breakdown[CONST_ACC_R][SECTOR_MISS] = 0
	Total_core_cache_stats_breakdown[TEXTURE_ACC_R][HIT] = 0
	Total_core_cache_stats_breakdown[TEXTURE_ACC_R][HIT_RESERVED] = 0
	Total_core_cache_stats_breakdown[TEXTURE_ACC_R][MISS] = 0
	Total_core_cache_stats_breakdown[TEXTURE_ACC_R][RESERVATION_FAIL] = 0
	Total_core_cache_stats_breakdown[TEXTURE_ACC_R][SECTOR_MISS] = 0
	Total_core_cache_stats_breakdown[GLOBAL_ACC_W][HIT] = 0
	Total_core_cache_stats_breakdown[GLOBAL_ACC_W][HIT_RESERVED] = 0
	Total_core_cache_stats_breakdown[GLOBAL_ACC_W][MISS] = 135393
	Total_core_cache_stats_breakdown[GLOBAL_ACC_W][RESERVATION_FAIL] = 0
	Total_core_cache_stats_breakdown[GLOBAL_ACC_W][SECTOR_MISS] = 0
	Total_core_cache_stats_breakdown[LOCAL_ACC_W][HIT] = 0
	Total_core_cache_stats_breakdown[LOCAL_ACC_W][HIT_RESERVED] = 0
	Total_core_cache_stats_breakdown[LOCAL_ACC_W][MISS] = 0
	Total_core_cache_stats_breakdown[LOCAL_ACC_W][RESERVATION_FAIL] = 0
	Total_core_cache_stats_breakdown[LOCAL_ACC_W][SECTOR_MISS] = 0
	Total_core_cache_stats_breakdown[L1_WRBK_ACC][HIT] = 0
	Total_core_cache_stats_breakdown[L1_WRBK_ACC][HIT_RESERVED] = 0
	Total_core_cache_stats_breakdown[L1_WRBK_ACC][MISS] = 0
	Total_core_cache_stats_breakdown[L1_WRBK_ACC][RESERVATION_FAIL] = 0
	Total_core_cache_stats_breakdown[L1_WRBK_ACC][SECTOR_MISS] = 0
	Total_core_cache_stats_breakdown[L2_WRBK_ACC][HIT] = 0
	Total_core_cache_stats_breakdown[L2_WRBK_ACC][HIT_RESERVED] = 0
	Total_core_cache_stats_breakdown[L2_WRBK_ACC][MISS] = 0
	Total_core_cache_stats_breakdown[L2_WRBK_ACC][RESERVATION_FAIL] = 0
	Total_core_cache_stats_breakdown[L2_WRBK_ACC][SECTOR_MISS] = 0
	Total_core_cache_stats_breakdown[INST_ACC_R][HIT] = 0
	Total_core_cache_stats_breakdown[INST_ACC_R][HIT_RESERVED] = 0
	Total_core_cache_stats_breakdown[INST_ACC_R][MISS] = 0
	Total_core_cache_stats_breakdown[INST_ACC_R][RESERVATION_FAIL] = 0
	Total_core_cache_stats_breakdown[INST_ACC_R][SECTOR_MISS] = 0
	Total_core_cache_stats_breakdown[L1_WR_ALLOC_R][HIT] = 0
	Total_core_cache_stats_breakdown[L1_WR_ALLOC_R][HIT_RESERVED] = 0
	Total_core_cache_stats_breakdown[L1_WR_ALLOC_R][MISS] = 0
	Total_core_cache_stats_breakdown[L1_WR_ALLOC_R][RESERVATION_FAIL] = 0
	Total_core_cache_stats_breakdown[L1_WR_ALLOC_R][SECTOR_MISS] = 0
	Total_core_cache_stats_breakdown[L2_WR_ALLOC_R][HIT] = 0
	Total_core_cache_stats_breakdown[L2_WR_ALLOC_R][HIT_RESERVED] = 0
	Total_core_cache_stats_breakdown[L2_WR_ALLOC_R][MISS] = 0
	Total_core_cache_stats_breakdown[L2_WR_ALLOC_R][RESERVATION_FAIL] = 0
	Total_core_cache_stats_breakdown[L2_WR_ALLOC_R][SECTOR_MISS] = 0
	Total_core_cache_stats_breakdown[GLOBAL_ACC_R][TOTAL_ACCESS] = 1067753
	Total_core_cache_stats_breakdown[GLOBAL_ACC_W][TOTAL_ACCESS] = 135393

Total_core_cache_fail_stats:
Shader 0 warp_id issue ditsribution:
warp_id:
0, 1, 2, 3, 4, 5, 6, 7, 8, 9, 10, 11, 12, 13, 14, 15, 16, 17, 18, 19, 20, 21, 22, 23, 24, 25, 26, 27, 28, 29, 30, 31, 32, 33, 34, 35, 36, 37, 38, 39, 40, 41, 42, 43, 44, 45, 46, 47, 48, 49, 50, 51, 52, 53, 54, 55, 56, 57, 58, 59, 60, 61, 62, 63, 
distro:
392, 392, 391, 391, 391, 391, 391, 392, 391, 391, 390, 390, 387, 390, 385, 385, 385, 385, 379, 377, 379, 376, 379, 381, 379, 379, 379, 376, 376, 374, 374, 376, 381, 378, 380, 379, 374, 374, 376, 375, 374, 374, 374, 374, 374, 374, 373, 374, 374, 369, 371, 374, 374, 374, 374, 374, 369, 369, 369, 369, 369, 368, 369, 369, 
gpgpu_n_tot_thrd_icount = 63794848
gpgpu_n_tot_w_icount = 1993589
gpgpu_n_stall_shd_mem = 919665
gpgpu_n_mem_read_local = 0
gpgpu_n_mem_write_local = 0
gpgpu_n_mem_read_global = 718498
gpgpu_n_mem_write_global = 135385
gpgpu_n_mem_texture = 0
gpgpu_n_mem_const = 0
gpgpu_n_load_insn  = 7997361
gpgpu_n_store_insn = 1080603
gpgpu_n_shmem_insn = 0
gpgpu_n_sstarr_insn = 0
gpgpu_n_tex_insn = 0
gpgpu_n_const_mem_insn = 0
gpgpu_n_param_mem_insn = 7209822
gpgpu_n_shmem_bkconflict = 0
gpgpu_n_cache_bkconflict = 0
gpgpu_n_intrawarp_mshr_merge = 0
gpgpu_n_cmem_portconflict = 0
gpgpu_stall_shd_mem[c_mem][resource_stall] = 0
gpgpu_stall_shd_mem[s_mem][bk_conf] = 0
gpgpu_stall_shd_mem[gl_mem][resource_stall] = 919665
gpgpu_stall_shd_mem[gl_mem][coal_stall] = 0
gpgpu_stall_shd_mem[gl_mem][data_port_stall] = 0
gpu_reg_bank_conflict_stalls = 0
Warp Occupancy Distribution:
Stall:1791186	W0_Idle:6344	W0_Scoreboard:5409171	W1:0	W2:0	W3:0	W4:0	W5:0	W6:0	W7:0	W8:0	W9:0	W10:0	W11:0	W12:0	W13:0	W14:0	W15:0	W16:0	W17:0	W18:0	W19:0	W20:0	W21:0	W22:0	W23:0	W24:0	W25:0	W26:0	W27:0	W28:0	W29:0	W30:0	W31:226607	W32:1771172
single_issue_nums: WS0:499627	WS1:499452	WS2:499287	WS3:499413	
dual_issue_nums: WS0:0	WS1:0	WS2:0	WS3:0	
traffic_breakdown_coretomem[GLOBAL_ACC_R] = 5747984 {8:718498,}
traffic_breakdown_coretomem[GLOBAL_ACC_W] = 5415400 {40:135385,}
traffic_breakdown_memtocore[GLOBAL_ACC_R] = 28348800 {40:708720,}
traffic_breakdown_memtocore[GLOBAL_ACC_W] = 1065104 {8:133138,}
maxmflatency = 4659 
max_icnt2mem_latency = 3987 
maxmrqlatency = 780 
max_icnt2sh_latency = 348 
averagemflatency = 595 
avg_icnt2mem_latency = 301 
avg_mrq_latency = 43 
avg_icnt2sh_latency = 19 
mrq_lat_table:40258 	25111 	18877 	19340 	30312 	43219 	29574 	17617 	3560 	33 	0 	0 	0 	0 	0 	0 	0 	0 	0 	0 	0 	0 	0 	0 	0 	0 	0 	0 	0 	0 	0 	0 	
dq_lat_table:0 	0 	0 	0 	0 	0 	0 	0 	0 	0 	0 	0 	0 	0 	0 	0 	0 	0 	0 	0 	0 	0 	0 	0 	0 	0 	0 	0 	0 	0 	0 	0 	
mf_lat_table:0 	0 	0 	0 	0 	0 	0 	181254 	421185 	144947 	55365 	33475 	5600 	0 	0 	0 	0 	0 	0 	0 	0 	0 	0 	0 	0 	0 	0 	0 	0 	0 	0 	0 	
icnt2mem_lat_table:0 	0 	0 	0 	82449 	128627 	181671 	252543 	136760 	19428 	16626 	31427 	0 	0 	0 	0 	0 	0 	0 	0 	0 	0 	0 	0 	
icnt2sh_lat_table:0 	402550 	131905 	96190 	77916 	59629 	46213 	23869 	3554 	0 	0 	0 	0 	0 	0 	0 	0 	0 	0 	0 	0 	0 	0 	0 	
mf_lat_pw_table:0 	0 	0 	0 	0 	0 	0 	1 	37 	8 	4 	5 	1 	0 	0 	0 	0 	0 	0 	0 	0 	0 	0 	0 	0 	0 	0 	0 	0 	0 	0 	0 	
maximum concurrent accesses to same row:
dram[0]:        64        64        64        64        64        64        64        64        64        64        64        64        64        64        64        64 
dram[1]:        64        64        64        64        64        64        64        64        64        64        64        64        64        64        64        64 
dram[2]:        64        64        64        64        64        64        64        64        64        64        64        64        64        64        64        64 
dram[3]:        64        64        64        64        64        64        64        64        64        64        64        64        64        64        64        64 
dram[4]:        64        64        64        64        64        64        64        64        64        64        64        64        64        64        64        64 
dram[5]:        64        64        64        64        64        64        64        64        64        64        64        64        64        64        64        64 
dram[6]:        64        64        64        64        64        64        64        64        64        64        64        64        64        64        64        64 
dram[7]:        64        64        64        64        64        64        64        64        64        64        64        64        64        64        64        64 
dram[8]:        64        64        64        64        64        64        64        64        64        64        64        64        64        64        64        64 
dram[9]:        64        64        64        64        64        64        64        64        64        64        64        64        64        64        64        64 
dram[10]:        64        64        64        64        64        64        64        64        64        64        64        64        64        64        64        64 
dram[11]:        64        64        64        64        64        64        64        64        64        64        64        64        64        64        64        64 
dram[12]:        64        64        64        64        64        64        64        64        64        64        64        64        64        64        64        64 
dram[13]:        64        64        64        64        64        64        64        64        64        64        64        64        64        64        64        64 
dram[14]:        64        64        64        64        64        64        64        64        64        64        64        64        64        64        64        64 
dram[15]:        64        64        64        64        64        64        64        64        64        64        64        64        64        64        64        64 
dram[16]:        64        64        64        64        64        64        64        64        64        64        64        64        64        64        64        64 
dram[17]:        64        64        64        64        64        64        64        64        64        64        64        64        64        64        64        64 
dram[18]:        64        64        64        64        64        64        64        64        64        64        64        64        64        64        64        64 
dram[19]:        64        64        64        64        64        64        64        64        64        64        64        64        64        64        64        64 
dram[20]:        64        64        64        64        64        64        64        64        64        64        64        64        64        64        64        64 
dram[21]:        64        64        64        64        64        64        64        64        64        64        64        64        64        64        64        64 
dram[22]:        64        64        64        64        64        64        64        64        64        64        64        64        64        64        64        64 
dram[23]:        64        64        64        64        64        64        64        64        64        64        64        64        64        64        64        64 
dram[24]:        64        64        64        64        64        64        64        64        64        64        64        64        64        64        64        64 
dram[25]:        64        64        64        64        64        64        64        64        64        64        64        64        64        64        64        64 
dram[26]:        64        64        64        64        64        64        64        64        64        64        64        64        64        64        64        64 
dram[27]:        64        64        64        64        64        64        64        64        64        64        64        64        64        64        64        64 
dram[28]:        64        64        64        64        64        64        64        64        64        64        64        64        64        64        64        64 
dram[29]:        64        64        64        64        64        64        64        64        64        64        64        64        64        64        64        64 
dram[30]:        64        64        64        64        64        64        64        64        64        64        64        64        64        64        64        64 
dram[31]:        64        64        64        64        64        64        64        64        64        64        64        64        64        64        64        64 
maximum service time to same row:
dram[0]:      5976      6368      6627      6699      7077      7083      8131      8135      9200      9204      9222     13125     13439     13478     13581     13734 
dram[1]:      5906      6361      6670      6689      6907      6911      8200      8204      9260      9264      9283     13154     13413     13467     13615     13683 
dram[2]:      6048      6392      6573      6732      7309      7313      8493      8497      9604      9608      9626     13205     13505     13463     13688     13728 
dram[3]:      6329      6416      6622      6624      7340      7344      8352      8356      9535      9539      9557     13168     13466     13487     13619     13712 
dram[4]:      6550      6564      6685      6768      7533      7537      8633      8637      9997     10001     10019     13270     13507     13598     13682     13764 
dram[5]:      6478      6480      6607      6721      7593      7597      8701      8705      9756      9760      9778     13217     13565     13545     13666     13767 
dram[6]:      6699      6702      6738      6739      7845      7849      9054      9059     10167     10171     10190     13303     13679     13525     13782     13972 
dram[7]:      6730      6731      6749      6770      7914      7918      8914      8918      9937      9941      9959     13313     13696     13607     13811     13876 
dram[8]:      6230      6322      6393      6336      7081      7083      8134      8135      9203      9204     11047     13086     13409     13477     13752     13728 
dram[9]:      6292      6276      6323      6306      6910      6911      8203      8204      9263      9264     11054     13093     13431     13479     13704     13795 
dram[10]:      6247      6301      6350      6241      7312      7313      8496      8497      9607      9608     11118     13118     13505     13542     13744     13851 
dram[11]:      6329      6375      6368      6369      7343      7344      8355      8356      9537      9539     11093     13125     13542     13531     13787     13752 
dram[12]:      6550      6551      6589      6590      7536      7537      8636      8637      9999     10001     11146     13145     13486     13570     13818     13925 
dram[13]:      6478      6480      6517      6518      7596      7597      8704      8705      9758      9760     11141     13150     13603     13558     13851     13832 
dram[14]:      6699      6702      6738      6739      7847      7849      9056      9059     10170     10171     11183     13230     13471     13570     13949     13895 
dram[15]:      6730      6731      6769      6770      7917      7918      8917      8918      9939      9941     11125     13166     13598     13583     13963     13903 
dram[16]:      6308      6516      6505      6346      7081      7083      8134      8135      9203      9204     12976     13166     13453     13446     13888     13911 
dram[17]:      6337      6382      6568      6308      6910      6911      8203      8204      9263      9264     12984     13162     13418     13446     13872     13939 
dram[18]:      6355      6515      6669      6302      7312      7313      8496      8497      9607      9608     13030     13193     13422     13455     13929     13957 
dram[19]:      6329      6396      6523      6384      7343      7344      8355      8356      9537      9539     13001     13220     13434     13505     13860     13945 
dram[20]:      6550      6585      6589      6590      7536      7537      8636      8637      9999     10001     13045     13181     13506     13570     13943     14009 
dram[21]:      6478      6480      6616      6518      7596      7597      8704      8705      9758      9760     13016     13284     13486     13575     13920     13976 
dram[22]:      6699      6702      6738      6739      7847      7849      9056      9059     10170     10171     13105     13272     13581     13571     14009     14061 
dram[23]:      6730      6731      6769      6770      7917      7918      8917      8918      9939      9941     13093     13294     13539     13607     14023     14053 
dram[24]:      6500      6515      6477      6400      7081      7083      8134      8135      9203      9204     13090     13260     13571     13647     13824     13750 
dram[25]:      6455      6581      6437      6369      6910      6911      8203      8204      9263      9264     13117     13217     13578     13642     13792     13695 
dram[26]:      6592      6616      6471      6447      7312      7313      8496      8497      9607      9608     13121     13276     13628     13706     13866     13683 
dram[27]:      6617      6577      6443      6447      7343      7344      8355      8356      9537      9539     13101     13294     13616     13704     13827     13791 
dram[28]:      6550      6551      6589      6590      7536      7537      8636      8637      9999     10001     13169     13342     13686     13748     13897     13909 
dram[29]:      6553      6622      6517      6518      7596      7597      8704      8705      9758      9760     13145     13379     13628     13731     13900     13804 
dram[30]:      6699      6702      6738      6739      7847      7849      9056      9059     10170     10171     13197     13423     13752     13788     13928     13984 
dram[31]:      6730      6731      6769      6770      7917      7918      8917      8918      9939      9941     13202     13422     13678     13814     13939     13863 
average row accesses per activate:
dram[0]: 25.555555 34.571430 24.049999 28.235294 32.000000 32.000000 31.466667 31.466667 34.666668 41.599998 20.799999 32.000000 29.571428 29.714285 29.142857 37.272728 
dram[1]: 24.210526 34.571430 25.263159 25.263159 32.000000 32.000000 36.153847 36.076923 52.000000 52.000000 20.799999 34.666668 27.600000 34.666668 33.833332 34.083332 
dram[2]: 28.750000 34.571430 25.263159 28.235294 32.000000 32.000000 31.133333 31.200001 41.599998 41.599998 18.086956 37.818180 24.352942 34.583332 31.307692 37.090908 
dram[3]: 28.750000 34.571430 25.263159 25.263159 36.923077 36.923077 31.400000 31.266666 41.599998 41.599998 18.909090 34.666668 27.600000 29.714285 33.833332 34.250000 
dram[4]: 32.857143 40.333332 36.923077 36.923077 34.285713 34.285713 35.692307 35.769230 41.599998 52.000000 18.909090 32.000000 23.000000 34.583332 29.142857 33.833332 
dram[5]: 24.210526 34.571430 25.263159 32.000000 32.000000 32.000000 30.933332 30.933332 41.599998 41.599998 18.086956 34.666668 27.600000 31.846153 34.000000 37.090908 
dram[6]: 27.058823 34.571430 28.235294 32.000000 32.000000 32.000000 35.692307 35.153847 41.599998 52.000000 19.809525 29.714285 25.875000 29.571428 34.000000 40.500000 
dram[7]: 27.058823 34.571430 28.235294 28.235294 32.000000 32.000000 30.933332 30.533333 41.599998 41.599998 17.333334 32.000000 29.571428 31.846153 31.384615 31.230770 
dram[8]: 43.636364 40.166668 26.777779 28.235294 32.000000 32.000000 31.200001 31.466667 41.599998 41.599998 24.470589 20.799999 23.111111 37.818180 34.166668 41.200001 
dram[9]: 43.636364 34.357143 21.909090 32.000000 28.235294 30.062500 36.307693 36.307693 52.000000 41.599998 26.000000 17.333334 24.470589 32.000000 37.272728 37.454544 
dram[10]: 43.636364 40.250000 28.235294 32.000000 32.000000 28.294117 30.933332 31.466667 41.599998 41.599998 21.894737 18.909090 26.000000 32.000000 34.166668 37.181820 
dram[11]: 43.636364 40.333332 28.235294 36.923077 36.923077 36.923077 30.933332 31.466667 41.599998 41.599998 21.894737 16.639999 23.111111 29.714285 37.272728 31.384615 
dram[12]: 53.333332 48.299999 32.000000 43.636364 34.285713 34.285713 35.692307 36.307693 52.000000 52.000000 24.470589 17.333334 23.111111 32.000000 31.615385 41.000000 
dram[13]: 43.636364 40.333332 21.863636 32.000000 28.235294 32.000000 30.933332 31.466667 41.599998 41.599998 21.894737 18.909090 23.111111 29.714285 34.250000 37.090908 
dram[14]: 43.636364 40.250000 25.263159 32.000000 32.000000 32.000000 35.692307 36.153847 52.000000 41.599998 24.470589 18.909090 24.470589 29.714285 34.250000 34.166668 
dram[15]: 43.636364 40.083332 25.263159 32.000000 32.000000 28.294117 30.933332 31.466667 41.599998 34.666668 21.894737 18.909090 24.470589 34.666668 34.250000 34.083332 
dram[16]: 34.500000 43.636364 30.187500 24.049999 32.000000 32.000000 31.466667 31.466667 41.599998 41.599998 20.799999 23.111111 26.000000 32.000000 34.083332 41.299999 
dram[17]: 34.500000 43.636364 30.125000 30.062500 32.000000 32.000000 36.307693 35.846153 52.000000 52.000000 24.470589 21.894737 24.470589 29.714285 37.090908 41.400002 
dram[18]: 30.125000 30.062500 26.722221 25.263159 32.000000 32.000000 31.466667 31.200001 41.599998 41.599998 26.000000 32.000000 26.000000 32.000000 29.285715 41.200001 
dram[19]: 34.500000 36.923077 34.428570 36.923077 36.923077 36.923077 31.466667 30.933332 34.666668 41.599998 24.470589 23.111111 26.000000 32.000000 31.307692 41.200001 
dram[20]: 40.333332 36.923077 34.357143 43.636364 34.285713 34.285713 35.384617 35.769230 41.599998 52.000000 26.000000 21.894737 27.733334 34.666668 31.307692 37.454544 
dram[21]: 34.500000 43.636364 32.000000 32.000000 32.000000 32.000000 30.733334 30.933332 34.666668 41.599998 26.000000 27.733334 23.111111 37.818180 27.200001 41.200001 
dram[22]: 30.250000 36.923077 28.235294 25.263159 32.000000 32.000000 35.076923 35.769230 41.599998 52.000000 26.000000 24.470589 26.000000 34.666668 25.375000 41.099998 
dram[23]: 34.428570 36.923077 32.000000 25.263159 32.000000 32.000000 30.466667 30.933332 34.666668 34.666668 29.714285 27.733334 24.470589 32.000000 29.071428 37.454544 
dram[24]: 40.083332 40.083332 28.235294 32.000000 32.000000 32.000000 31.466667 31.466667 41.599998 41.599998 34.666668 29.714285 26.000000 41.599998 31.461538 26.200001 
dram[25]: 40.083332 36.923077 28.235294 32.000000 32.000000 32.000000 36.307693 36.076923 52.000000 52.000000 34.666668 27.733334 29.714285 37.818180 25.562500 21.833334 
dram[26]: 36.923077 34.357143 28.235294 32.000000 32.000000 32.000000 31.466667 31.066668 41.599998 41.599998 34.666668 29.714285 26.000000 37.818180 29.142857 23.117647 
dram[27]: 36.923077 34.428570 28.235294 32.000000 36.923077 36.923077 31.466667 31.266666 41.599998 41.599998 32.000000 32.000000 29.714285 34.666668 27.266666 27.928572 
dram[28]: 48.099998 40.166668 36.923077 43.636364 34.285713 34.285713 36.307693 35.692307 41.599998 52.000000 34.666668 29.714285 27.733334 34.583332 31.307692 21.666666 
dram[29]: 34.428570 34.428570 25.263159 32.000000 32.000000 32.000000 31.400000 31.000000 41.599998 41.599998 29.714285 29.714285 29.714285 29.571428 27.066668 21.666666 
dram[30]: 36.923077 34.357143 28.235294 32.000000 32.000000 32.000000 36.153847 35.692307 41.599998 52.000000 27.733334 29.714285 32.000000 34.583332 29.142857 21.666666 
dram[31]: 36.923077 34.428570 28.235294 32.000000 32.000000 32.000000 31.066668 30.933332 41.599998 41.599998 29.714285 29.714285 29.714285 34.583332 25.500000 24.375000 
average row locality = 227901/7187 = 31.710171
number of total memory accesses made:
dram[0]:         0         0         0         0         0         0         0         0         0         0         0         0         0         0         0         0 
dram[1]:         0         0         0         0         0         0         0         0         0         0         0         0         0         0         0         0 
dram[2]:         0         0         0         0         0         0         0         0         0         0         0         0         0         0         0         0 
dram[3]:         0         0         0         0         0         0         0         0         0         0         0         0         0         0         0         0 
dram[4]:         0         0         0         0         0         0         0         0         0         0         0         0         0         0         0         0 
dram[5]:         0         0         0         0         0         0         0         0         0         0         0         0         0         0         0         0 
dram[6]:         0         0         0         0         0         0         0         0         0         0         0         0         0         0         0         0 
dram[7]:         0         0         0         0         0         0         0         0         0         0         0         0         0         0         0         0 
dram[8]:         0         0         0         0         0         0         0         0         0         0         0         0         0         0         0         0 
dram[9]:         0         0         0         0         0         0         0         0         0         0         0         0         0         0         0         0 
dram[10]:         0         0         0         0         0         0         0         0         0         0         0         0         0         0         0         0 
dram[11]:         0         0         0         0         0         0         0         0         0         0         0         0         0         0         0         0 
dram[12]:         0         0         0         0         0         0         0         0         0         0         0         0         0         0         0         0 
dram[13]:         0         0         0         0         0         0         0         0         0         0         0         0         0         0         0         0 
dram[14]:         0         0         0         0         0         0         0         0         0         0         0         0         0         0         0         0 
dram[15]:         0         0         0         0         0         0         0         0         0         0         0         0         0         0         0         0 
dram[16]:         0         0         0         0         0         0         0         0         0         0         0         0         0         0         0         0 
dram[17]:         0         0         0         0         0         0         0         0         0         0         0         0         0         0         0         0 
dram[18]:         0         0         0         0         0         0         0         0         0         0         0         0         0         0         0         0 
dram[19]:         0         0         0         0         0         0         0         0         0         0         0         0         0         0         0         0 
dram[20]:         0         0         0         0         0         0         0         0         0         0         0         0         0         0         0         0 
dram[21]:         0         0         0         0         0         0         0         0         0         0         0         0         0         0         0         0 
dram[22]:         0         0         0         0         0         0         0         0         0         0         0         0         0         0         0         0 
dram[23]:         0         0         0         0         0         0         0         0         0         0         0         0         0         0         0         0 
dram[24]:         0         0         0         0         0         0         0         0         0         0         0         0         0         0         0         0 
dram[25]:         0         0         0         0         0         0         0         0         0         0         0         0         0         0         0         0 
dram[26]:         0         0         0         0         0         0         0         0         0         0         0         0         0         0         0         0 
dram[27]:         0         0         0         0         0         0         0         0         0         0         0         0         0         0         0         0 
dram[28]:         0         0         0         0         0         0         0         0         0         0         0         0         0         0         0         0 
dram[29]:         0         0         0         0         0         0         0         0         0         0         0         0         0         0         0         0 
dram[30]:         0         0         0         0         0         0         0         0         0         0         0         0         0         0         0         0 
dram[31]:         0         0         0         0         0         0         0         0         0         0         0         0         0         0         0         0 
total accesses: 0
min_bank_accesses = 0!
min_chip_accesses = 0!
number of total read accesses:
dram[0]:       432       448       448       448       448       448       440       440       384       384       384       384       384       384       384       384 
dram[1]:       432       448       448       448       448       448       438       437       384       384       384       384       384       384       384       384 
dram[2]:       432       448       448       448       448       448       436       437       384       384       384       384       384       384       384       384 
dram[3]:       432       448       448       448       448       448       439       437       384       384       384       384       384       384       384       384 
dram[4]:       432       448       448       448       448       448       432       433       384       384       384       384       384       384       384       384 
dram[5]:       432       448       448       448       448       448       432       432       384       384       384       384       384       384       384       384 
dram[6]:       432       448       448       448       448       448       432       425       384       384       384       384       384       384       384       384 
[...]
RTWc_limit_alone = 3174 

Commands details: 
total_CMD = 25353 
n_nop = 16542 
Read = 6620 
Write = 0 
L2_Alloc = 0 
L2_WB = 1992 
n_act = 216 
n_pre = 200 
n_ref = 0 
n_req = 7119 
total_req = 8612 

Dual Bus Interface Util: 
issued_total_row = 416 
issued_total_col = 8612 
Row_Bus_Util =  0.016408 
CoL_Bus_Util = 0.339684 
Either_Row_CoL_Bus_Util = 0.347533 
Issued_on_Two_Bus_Simul_Util = 0.008559 
issued_two_Eff = 0.024628 
queue_avg = 8.804717 


dram_util_bins: 0 0 0 0 0 0 0 0 0 0
dram_eff_bins: 0 0 0 0 0 0 0 0 0 0
mrqq: max=64 avg=8.80472
Memory Partition 28: 
Cache L2_bank_056:

Cache L2_bank_057:

In Dram Latency Queue (total = 57): 
DRAM[28]: 16 bks, busW=16 BL=2 CL=12, tRRD=3 tCCD=1, tRCD=12 tRAS=28 tRP=12 tRC=40
n_cmd=25353 n_nop=16583 n_act=202 n_pre=186 n_ref_event=0 n_req=7111 n_rd=6616 n_rd_L2_A=0 n_write=0 n_wr_bk=1980 bw_util=0.3391
n_activity=13940 dram_eff=0.6166
bk0: 448a 23073i bk1: 448a 22889i bk2: 448a 22888i bk3: 448a 23070i bk4: 448a 23359i bk5: 448a 23037i bk6: 440a 23499i bk7: 432a 23483i bk8: 384a 23360i bk9: 384a 23704i bk10: 384a 23877i bk11: 384a 23875i bk12: 384a 23585i bk13: 384a 23517i bk14: 384a 23624i bk15: 368a 23437i 

------------------------------------------------------------------------

Row_Buffer_Locality = 0.971593
Row_Buffer_Locality_read = 0.975212
Row_Buffer_Locality_write = 0.923232
Bank_Level_Parallism = 3.116456
Bank_Level_Parallism_Col = 2.992721
Bank_Level_Parallism_Ready = 1.609702
write_to_read_ratio_blp_rw_average = 0.291992
GrpLevelPara = 2.291165 

BW Util details:
bwutil = 0.339053 
total_CMD = 25353 
util_bw = 8596 
Wasted_Col = 3390 
Wasted_Row = 362 
Idle = 13005 

BW Util Bottlenecks: 
RCDc_limit = 758 
RCDWRc_limit = 208 
WTRc_limit = 1347 
RTWc_limit = 3217 
CCDLc_limit = 2545 
rwq = 0 
CCDLc_limit_alone = 1970 
WTRc_limit_alone = 1145 
RTWc_limit_alone = 2844 

Commands details: 
total_CMD = 25353 
n_nop = 16583 
Read = 6616 
Write = 0 
L2_Alloc = 0 
L2_WB = 1980 
n_act = 202 
n_pre = 186 
n_ref = 0 
n_req = 7111 
total_req = 8596 

Dual Bus Interface Util: 
issued_total_row = 388 
issued_total_col = 8596 
Row_Bus_Util =  0.015304 
CoL_Bus_Util = 0.339053 
Either_Row_CoL_Bus_Util = 0.345916 
Issued_on_Two_Bus_Simul_Util = 0.008441 
issued_two_Eff = 0.024401 
queue_avg = 8.742397 


dram_util_bins: 0 0 0 0 0 0 0 0 0 0
dram_eff_bins: 0 0 0 0 0 0 0 0 0 0
mrqq: max=64 avg=8.7424
Memory Partition 29: 
Cache L2_bank_058:

Cache L2_bank_059:

In Dram Latency Queue (total = 45): 
DRAM[29]: 16 bks, busW=16 BL=2 CL=12, tRRD=3 tCCD=1, tRCD=12 tRAS=28 tRP=12 tRC=40
n_cmd=25353 n_nop=16569 n_act=231 n_pre=215 n_ref_event=0 n_req=7111 n_rd=6615 n_rd_L2_A=0 n_write=0 n_wr_bk=1976 bw_util=0.3389
n_activity=14009 dram_eff=0.6132
bk0: 448a 23181i bk1: 448a 23166i bk2: 448a 22985i bk3: 448a 22712i bk4: 448a 23742i bk5: 448a 23602i bk6: 438a 23456i bk7: 433a 23401i bk8: 384a 23584i bk9: 384a 23404i bk10: 384a 23597i bk11: 384a 23685i bk12: 384a 23581i bk13: 384a 23614i bk14: 384a 23591i bk15: 368a 23468i 

------------------------------------------------------------------------

Row_Buffer_Locality = 0.967511
Row_Buffer_Locality_read = 0.970979
Row_Buffer_Locality_write = 0.921053
Bank_Level_Parallism = 3.058369
Bank_Level_Parallism_Col = 2.898581
Bank_Level_Parallism_Ready = 1.570946
write_to_read_ratio_blp_rw_average = 0.277852
GrpLevelPara = 2.281135 

BW Util details:
bwutil = 0.338855 
total_CMD = 25353 
util_bw = 8591 
Wasted_Col = 3429 
Wasted_Row = 401 
Idle = 12932 

BW Util Bottlenecks: 
RCDc_limit = 893 
RCDWRc_limit = 187 
WTRc_limit = 1350 
RTWc_limit = 2743 
CCDLc_limit = 2517 
rwq = 0 
CCDLc_limit_alone = 2041 
WTRc_limit_alone = 1114 
RTWc_limit_alone = 2503 

Commands details: 
total_CMD = 25353 
n_nop = 16569 
Read = 6615 
Write = 0 
L2_Alloc = 0 
L2_WB = 1976 
n_act = 231 
n_pre = 215 
n_ref = 0 
n_req = 7111 
total_req = 8591 

Dual Bus Interface Util: 
issued_total_row = 446 
issued_total_col = 8591 
Row_Bus_Util =  0.017592 
CoL_Bus_Util = 0.338855 
Either_Row_CoL_Bus_Util = 0.346468 
Issued_on_Two_Bus_Simul_Util = 0.009979 
issued_two_Eff = 0.028802 
queue_avg = 9.004576 


dram_util_bins: 0 0 0 0 0 0 0 0 0 0
dram_eff_bins: 0 0 0 0 0 0 0 0 0 0
mrqq: max=64 avg=9.00458
Memory Partition 30: 
Cache L2_bank_060:

Cache L2_bank_061:

In Dram Latency Queue (total = 33): 
DRAM[30]: 16 bks, busW=16 BL=2 CL=12, tRRD=3 tCCD=1, tRCD=12 tRAS=28 tRP=12 tRC=40
n_cmd=25353 n_nop=16584 n_act=219 n_pre=203 n_ref_event=0 n_req=7109 n_rd=6613 n_rd_L2_A=0 n_write=0 n_wr_bk=1973 bw_util=0.3387
n_activity=13845 dram_eff=0.6202
bk0: 448a 23381i bk1: 448a 22997i bk2: 448a 22870i bk3: 448a 22856i bk4: 448a 23416i bk5: 448a 23533i bk6: 437a 23488i bk7: 432a 23426i bk8: 384a 23674i bk9: 384a 23365i bk10: 384a 23877i bk11: 384a 23500i bk12: 384a 23766i bk13: 384a 23534i bk14: 384a 23582i bk15: 368a 23738i 

------------------------------------------------------------------------

Row_Buffer_Locality = 0.969190
Row_Buffer_Locality_read = 0.972634
Row_Buffer_Locality_write = 0.923077
Bank_Level_Parallism = 3.079954
Bank_Level_Parallism_Col = 2.927293
Bank_Level_Parallism_Ready = 1.588516
write_to_read_ratio_blp_rw_average = 0.281862
GrpLevelPara = 2.270478 

BW Util details:
bwutil = 0.338658 
total_CMD = 25353 
util_bw = 8586 
Wasted_Col = 3295 
Wasted_Row = 376 
Idle = 13096 

BW Util Bottlenecks: 
RCDc_limit = 791 
RCDWRc_limit = 170 
WTRc_limit = 1617 
RTWc_limit = 2768 
CCDLc_limit = 2457 
rwq = 0 
CCDLc_limit_alone = 1935 
WTRc_limit_alone = 1366 
RTWc_limit_alone = 2497 

Commands details: 
total_CMD = 25353 
n_nop = 16584 
Read = 6613 
Write = 0 
L2_Alloc = 0 
L2_WB = 1973 
n_act = 219 
n_pre = 203 
n_ref = 0 
n_req = 7109 
total_req = 8586 

Dual Bus Interface Util: 
issued_total_row = 422 
issued_total_col = 8586 
Row_Bus_Util =  0.016645 
CoL_Bus_Util = 0.338658 
Either_Row_CoL_Bus_Util = 0.345876 
Issued_on_Two_Bus_Simul_Util = 0.009427 
issued_two_Eff = 0.027255 
queue_avg = 8.226167 


dram_util_bins: 0 0 0 0 0 0 0 0 0 0
dram_eff_bins: 0 0 0 0 0 0 0 0 0 0
mrqq: max=64 avg=8.22617
Memory Partition 31: 
Cache L2_bank_062:

Cache L2_bank_063:

In Dram Latency Queue (total = 32): 
DRAM[31]: 16 bks, busW=16 BL=2 CL=12, tRRD=3 tCCD=1, tRCD=12 tRAS=28 tRP=12 tRC=40
n_cmd=25353 n_nop=16577 n_act=225 n_pre=209 n_ref_event=0 n_req=7106 n_rd=6609 n_rd_L2_A=0 n_write=0 n_wr_bk=1976 bw_util=0.3386
n_activity=13947 dram_eff=0.6155
bk0: 448a 23459i bk1: 448a 23196i bk2: 448a 23117i bk3: 448a 22871i bk4: 448a 23479i bk5: 448a 23377i bk6: 433a 23816i bk7: 432a 23491i bk8: 384a 23569i bk9: 384a 23419i bk10: 384a 23748i bk11: 384a 23447i bk12: 384a 23293i bk13: 384a 23184i bk14: 384a 23243i bk15: 368a 23559i 

------------------------------------------------------------------------

Row_Buffer_Locality = 0.968332
Row_Buffer_Locality_read = 0.971407
Row_Buffer_Locality_write = 0.927273
Bank_Level_Parallism = 3.112001
Bank_Level_Parallism_Col = 2.958169
Bank_Level_Parallism_Ready = 1.591846
write_to_read_ratio_blp_rw_average = 0.286430
GrpLevelPara = 2.252740 

BW Util details:
bwutil = 0.338619 
total_CMD = 25353 
util_bw = 8585 
Wasted_Col = 3408 
Wasted_Row = 373 
Idle = 12987 

BW Util Bottlenecks: 
RCDc_limit = 910 
RCDWRc_limit = 166 
WTRc_limit = 1215 
RTWc_limit = 3198 
CCDLc_limit = 2582 
rwq = 0 
CCDLc_limit_alone = 2020 
WTRc_limit_alone = 992 
RTWc_limit_alone = 2859 

Commands details: 
total_CMD = 25353 
n_nop = 16577 
Read = 6609 
Write = 0 
L2_Alloc = 0 
L2_WB = 1976 
n_act = 225 
n_pre = 209 
n_ref = 0 
n_req = 7106 
total_req = 8585 

Dual Bus Interface Util: 
issued_total_row = 434 
issued_total_col = 8585 
Row_Bus_Util =  0.017118 
CoL_Bus_Util = 0.338619 
Either_Row_CoL_Bus_Util = 0.346152 
Issued_on_Two_Bus_Simul_Util = 0.009585 
issued_two_Eff = 0.027689 
queue_avg = 8.513706 


dram_util_bins: 0 0 0 0 0 0 0 0 0 0
dram_eff_bins: 0 0 0 0 0 0 0 0 0 0
mrqq: max=64 avg=8.51371

========= L2 cache stats =========
L2_cache_bank[0]: Access = 13143, Miss = 5426, Miss_rate = 0.413, Pending_hits = 16, Reservation_fails = 0
L2_cache_bank[1]: Access = 13284, Miss = 5440, Miss_rate = 0.410, Pending_hits = 0, Reservation_fails = 0
L2_cache_bank[2]: Access = 13133, Miss = 5404, Miss_rate = 0.411, Pending_hits = 8, Reservation_fails = 0
L2_cache_bank[3]: Access = 13253, Miss = 5436, Miss_rate = 0.410, Pending_hits = 0, Reservation_fails = 0
L2_cache_bank[4]: Access = 13082, Miss = 5390, Miss_rate = 0.412, Pending_hits = 24, Reservation_fails = 0
L2_cache_bank[5]: Access = 13260, Miss = 5432, Miss_rate = 0.410, Pending_hits = 4, Reservation_fails = 0
L2_cache_bank[6]: Access = 13093, Miss = 5392, Miss_rate = 0.412, Pending_hits = 8, Reservation_fails = 47
L2_cache_bank[7]: Access = 13267, Miss = 5440, Miss_rate = 0.410, Pending_hits = 4, Reservation_fails = 0
L2_cache_bank[8]: Access = 13026, Miss = 5384, Miss_rate = 0.413, Pending_hits = 16, Reservation_fails = 0
L2_cache_bank[9]: Access = 13211, Miss = 5436, Miss_rate = 0.411, Pending_hits = 8, Reservation_fails = 32
L2_cache_bank[10]: Access = 13023, Miss = 5380, Miss_rate = 0.413, Pending_hits = 8, Reservation_fails = 39
L2_cache_bank[11]: Access = 13196, Miss = 5427, Miss_rate = 0.411, Pending_hits = 8, Reservation_fails = 0
L2_cache_bank[12]: Access = 12951, Miss = 5367, Miss_rate = 0.414, Pending_hits = 16, Reservation_fails = 0
L2_cache_bank[13]: Access = 13193, Miss = 5413, Miss_rate = 0.410, Pending_hits = 7, Reservation_fails = 14
L2_cache_bank[14]: Access = 12995, Miss = 5365, Miss_rate = 0.413, Pending_hits = 8, Reservation_fails = 0
L2_cache_bank[15]: Access = 13194, Miss = 5420, Miss_rate = 0.411, Pending_hits = 6, Reservation_fails = 0
L2_cache_bank[16]: Access = 13259, Miss = 5464, Miss_rate = 0.412, Pending_hits = 8, Reservation_fails = 0
L2_cache_bank[17]: Access = 13240, Miss = 5442, Miss_rate = 0.411, Pending_hits = 0, Reservation_fails = 57
L2_cache_bank[18]: Access = 13250, Miss = 5460, Miss_rate = 0.412, Pending_hits = 5, Reservation_fails = 0
L2_cache_bank[19]: Access = 13227, Miss = 5424, Miss_rate = 0.410, Pending_hits = 0, Reservation_fails = 0
L2_cache_bank[20]: Access = 13181, Miss = 5445, Miss_rate = 0.413, Pending_hits = 2, Reservation_fails = 0
L2_cache_bank[21]: Access = 13186, Miss = 5414, Miss_rate = 0.411, Pending_hits = 0, Reservation_fails = 115
L2_cache_bank[22]: Access = 13180, Miss = 5436, Miss_rate = 0.412, Pending_hits = 4, Reservation_fails = 0
L2_cache_bank[23]: Access = 13238, Miss = 5428, Miss_rate = 0.410, Pending_hits = 0, Reservation_fails = 21
L2_cache_bank[24]: Access = 13159, Miss = 5424, Miss_rate = 0.412, Pending_hits = 4, Reservation_fails = 0
L2_cache_bank[25]: Access = 13129, Miss = 5408, Miss_rate = 0.412, Pending_hits = 0, Reservation_fails = 0
L2_cache_bank[26]: Access = 13122, Miss = 5420, Miss_rate = 0.413, Pending_hits = 4, Reservation_fails = 0
L2_cache_bank[27]: Access = 13147, Miss = 5400, Miss_rate = 0.411, Pending_hits = 0, Reservation_fails = 0
L2_cache_bank[28]: Access = 13094, Miss = 5408, Miss_rate = 0.413, Pending_hits = 17, Reservation_fails = 0
L2_cache_bank[29]: Access = 13082, Miss = 5395, Miss_rate = 0.412, Pending_hits = 0, Reservation_fails = 0
L2_cache_bank[30]: Access = 13105, Miss = 5420, Miss_rate = 0.414, Pending_hits = 25, Reservation_fails = 0
L2_cache_bank[31]: Access = 13117, Miss = 5417, Miss_rate = 0.413, Pending_hits = 0, Reservation_fails = 6
L2_cache_bank[32]: Access = 13374, Miss = 5460, Miss_rate = 0.408, Pending_hits = 22, Reservation_fails = 0
L2_cache_bank[33]: Access = 13328, Miss = 5436, Miss_rate = 0.408, Pending_hits = 20, Reservation_fails = 111
L2_cache_bank[34]: Access = 13367, Miss = 5470, Miss_rate = 0.409, Pending_hits = 10, Reservation_fails = 0
L2_cache_bank[35]: Access = 13293, Miss = 5428, Miss_rate = 0.408, Pending_hits = 30, Reservation_fails = 219
L2_cache_bank[36]: Access = 13360, Miss = 5460, Miss_rate = 0.409, Pending_hits = 21, Reservation_fails = 0
L2_cache_bank[37]: Access = 13252, Miss = 5428, Miss_rate = 0.410, Pending_hits = 12, Reservation_fails = 111
L2_cache_bank[38]: Access = 13316, Miss = 5448, Miss_rate = 0.409, Pending_hits = 9, Reservation_fails = 0
L2_cache_bank[39]: Access = 13309, Miss = 5420, Miss_rate = 0.407, Pending_hits = 35, Reservation_fails = 45
L2_cache_bank[40]: Access = 13256, Miss = 5452, Miss_rate = 0.411, Pending_hits = 4, Reservation_fails = 0
L2_cache_bank[41]: Access = 13242, Miss = 5420, Miss_rate = 0.409, Pending_hits = 6, Reservation_fails = 42
L2_cache_bank[42]: Access = 13256, Miss = 5432, Miss_rate = 0.410, Pending_hits = 6, Reservation_fails = 0
L2_cache_bank[43]: Access = 13208, Miss = 5408, Miss_rate = 0.409, Pending_hits = 8, Reservation_fails = 99
L2_cache_bank[44]: Access = 13215, Miss = 5404, Miss_rate = 0.409, Pending_hits = 8, Reservation_fails = 0
L2_cache_bank[45]: Access = 13191, Miss = 5390, Miss_rate = 0.409, Pending_hits = 0, Reservation_fails = 204
L2_cache_bank[46]: Access = 13196, Miss = 5422, Miss_rate = 0.411, Pending_hits = 7, Reservation_fails = 0
L2_cache_bank[47]: Access = 13204, Miss = 5404, Miss_rate = 0.409, Pending_hits = 4, Reservation_fails = 79
L2_cache_bank[48]: Access = 13255, Miss = 5452, Miss_rate = 0.411, Pending_hits = 16, Reservation_fails = 0
L2_cache_bank[49]: Access = 13152, Miss = 5380, Miss_rate = 0.409, Pending_hits = 4, Reservation_fails = 58
L2_cache_bank[50]: Access = 13231, Miss = 5437, Miss_rate = 0.411, Pending_hits = 16, Reservation_fails = 0
L2_cache_bank[51]: Access = 13145, Miss = 5380, Miss_rate = 0.409, Pending_hits = 33, Reservation_fails = 13
L2_cache_bank[52]: Access = 13196, Miss = 5424, Miss_rate = 0.411, Pending_hits = 16, Reservation_fails = 0
L2_cache_bank[53]: Access = 13116, Miss = 5376, Miss_rate = 0.410, Pending_hits = 15, Reservation_fails = 9
L2_cache_bank[54]: Access = 13237, Miss = 5424, Miss_rate = 0.410, Pending_hits = 16, Reservation_fails = 0
L2_cache_bank[55]: Access = 13117, Miss = 5376, Miss_rate = 0.410, Pending_hits = 16, Reservation_fails = 0
L2_cache_bank[56]: Access = 13168, Miss = 5420, Miss_rate = 0.412, Pending_hits = 12, Reservation_fails = 0
L2_cache_bank[57]: Access = 13108, Miss = 5380, Miss_rate = 0.410, Pending_hits = 20, Reservation_fails = 0
L2_cache_bank[58]: Access = 13124, Miss = 5396, Miss_rate = 0.411, Pending_hits = 12, Reservation_fails = 0
L2_cache_bank[59]: Access = 13071, Miss = 5368, Miss_rate = 0.411, Pending_hits = 16, Reservation_fails = 0
L2_cache_bank[60]: Access = 13158, Miss = 5394, Miss_rate = 0.410, Pending_hits = 20, Reservation_fails = 0
L2_cache_bank[61]: Access = 13041, Miss = 5368, Miss_rate = 0.412, Pending_hits = 9, Reservation_fails = 0
L2_cache_bank[62]: Access = 13108, Miss = 5384, Miss_rate = 0.411, Pending_hits = 12, Reservation_fails = 0
L2_cache_bank[63]: Access = 13060, Miss = 5364, Miss_rate = 0.411, Pending_hits = 20, Reservation_fails = 0
L2_total_cache_accesses = 843674
L2_total_cache_misses = 346562
L2_total_cache_miss_rate = 0.4108
L2_total_cache_pending_hits = 665
L2_total_cache_reservation_fails = 1321
L2_total_cache_breakdown:
	L2_cache_stats_breakdown[GLOBAL_ACC_R][HIT] = 496447
	L2_cache_stats_breakdown[GLOBAL_ACC_R][HIT_RESERVED] = 665
	L2_cache_stats_breakdown[GLOBAL_ACC_R][MISS] = 53346
	L2_cache_stats_breakdown[GLOBAL_ACC_R][RESERVATION_FAIL] = 1321
	L2_cache_stats_breakdown[GLOBAL_ACC_R][SECTOR_MISS] = 160029
	L2_cache_stats_breakdown[LOCAL_ACC_R][HIT] = 0
	L2_cache_stats_breakdown[LOCAL_ACC_R][HIT_RESERVED] = 0
	L2_cache_stats_breakdown[LOCAL_ACC_R][MISS] = 0
	L2_cache_stats_breakdown[LOCAL_ACC_R][RESERVATION_FAIL] = 0
	L2_cache_stats_breakdown[LOCAL_ACC_R][SECTOR_MISS] = 0
	L2_cache_stats_breakdown[CONST_ACC_R][HIT] = 0
	L2_cache_stats_breakdown[CONST_ACC_R][HIT_RESERVED] = 0
	L2_cache_stats_breakdown[CONST_ACC_R][MISS] = 0
	L2_cache_stats_breakdown[CONST_ACC_R][RESERVATION_FAIL] = 0
	L2_cache_stats_breakdown[CONST_ACC_R][SECTOR_MISS] = 0
	L2_cache_stats_breakdown[TEXTURE_ACC_R][HIT] = 0
	L2_cache_stats_breakdown[TEXTURE_ACC_R][HIT_RESERVED] = 0
	L2_cache_stats_breakdown[TEXTURE_ACC_R][MISS] = 0
	L2_cache_stats_breakdown[TEXTURE_ACC_R][RESERVATION_FAIL] = 0
	L2_cache_stats_breakdown[TEXTURE_ACC_R][SECTOR_MISS] = 0
	L2_cache_stats_breakdown[GLOBAL_ACC_W][HIT] = 0
	L2_cache_stats_breakdown[GLOBAL_ACC_W][HIT_RESERVED] = 0
	L2_cache_stats_breakdown[GLOBAL_ACC_W][MISS] = 33304
	L2_cache_stats_breakdown[GLOBAL_ACC_W][RESERVATION_FAIL] = 0
	L2_cache_stats_breakdown[GLOBAL_ACC_W][SECTOR_MISS] = 99883
	L2_cache_stats_breakdown[LOCAL_ACC_W][HIT] = 0
	L2_cache_stats_breakdown[LOCAL_ACC_W][HIT_RESERVED] = 0
	L2_cache_stats_breakdown[LOCAL_ACC_W][MISS] = 0
	L2_cache_stats_breakdown[LOCAL_ACC_W][RESERVATION_FAIL] = 0
	L2_cache_stats_breakdown[LOCAL_ACC_W][SECTOR_MISS] = 0
	L2_cache_stats_breakdown[L1_WRBK_ACC][HIT] = 0
	L2_cache_stats_breakdown[L1_WRBK_ACC][HIT_RESERVED] = 0
	L2_cache_stats_breakdown[L1_WRBK_ACC][MISS] = 0
	L2_cache_stats_breakdown[L1_WRBK_ACC][RESERVATION_FAIL] = 0
	L2_cache_stats_breakdown[L1_WRBK_ACC][SECTOR_MISS] = 0
	L2_cache_stats_breakdown[L2_WRBK_ACC][HIT] = 0
	L2_cache_stats_breakdown[L2_WRBK_ACC][HIT_RESERVED] = 0
	L2_cache_stats_breakdown[L2_WRBK_ACC][MISS] = 0
	L2_cache_stats_breakdown[L2_WRBK_ACC][RESERVATION_FAIL] = 0
	L2_cache_stats_breakdown[L2_WRBK_ACC][SECTOR_MISS] = 0
	L2_cache_stats_breakdown[INST_ACC_R][HIT] = 0
	L2_cache_stats_breakdown[INST_ACC_R][HIT_RESERVED] = 0
	L2_cache_stats_breakdown[INST_ACC_R][MISS] = 0
	L2_cache_stats_breakdown[INST_ACC_R][RESERVATION_FAIL] = 0
	L2_cache_stats_breakdown[INST_ACC_R][SECTOR_MISS] = 0
	L2_cache_stats_breakdown[L1_WR_ALLOC_R][HIT] = 0
	L2_cache_stats_breakdown[L1_WR_ALLOC_R][HIT_RESERVED] = 0
	L2_cache_stats_breakdown[L1_WR_ALLOC_R][MISS] = 0
	L2_cache_stats_breakdown[L1_WR_ALLOC_R][RESERVATION_FAIL] = 0
	L2_cache_stats_breakdown[L1_WR_ALLOC_R][SECTOR_MISS] = 0
	L2_cache_stats_breakdown[L2_WR_ALLOC_R][HIT] = 0
	L2_cache_stats_breakdown[L2_WR_ALLOC_R][HIT_RESERVED] = 0
	L2_cache_stats_breakdown[L2_WR_ALLOC_R][MISS] = 0
	L2_cache_stats_breakdown[L2_WR_ALLOC_R][RESERVATION_FAIL] = 0
	L2_cache_stats_breakdown[L2_WR_ALLOC_R][SECTOR_MISS] = 0
	L2_cache_stats_breakdown[GLOBAL_ACC_R][TOTAL_ACCESS] = 710487
	L2_cache_stats_breakdown[GLOBAL_ACC_W][TOTAL_ACCESS] = 133187
L2_total_cache_reservation_fail_breakdown:
	L2_cache_stats_fail_breakdown[GLOBAL_ACC_R][MSHR_ENRTY_FAIL] = 1321
L2_cache_data_port_util = 0.245
L2_cache_fill_port_util = 0.098

icnt_total_pkts_mem_to_simt=841858
icnt_total_pkts_simt_to_mem=853883
LD_mem_lat_dist  0 0 0 0 0 0 0 0 0 0 0 0 0 0 0 0 0 0 0 0 0 0 0 0 0 0 0
ST_mem_lat_dist  0 0 0 0 0 0 0 0 0 0 0 0 0 0 0 0 0 0 0 0 0 0 0 0 0 0 0
----------------------------Interconnect-DETAILS--------------------------------
Req_Network_injected_packets_num = 853883
Req_Network_cycles = 33765
Req_Network_injected_packets_per_cycle =      25.2890 
Req_Network_conflicts_per_cycle =      34.1330
Req_Network_conflicts_per_cycle_util =      40.8326
Req_Bank_Level_Parallism =      30.0998
Req_Network_in_buffer_full_per_cycle =       0.0000
Req_Network_in_buffer_avg_util =      85.2437
Req_Network_out_buffer_full_per_cycle =       0.0000
Req_Network_out_buffer_avg_util =       0.9083

Reply_Network_injected_packets_num = 842107
Reply_Network_cycles = 33765
Reply_Network_injected_packets_per_cycle =       24.9402
Reply_Network_conflicts_per_cycle =       11.6277
Reply_Network_conflicts_per_cycle_util =      14.5616
Reply_Bank_Level_Parallism =      31.2253
Reply_Network_in_buffer_full_per_cycle =       0.0000
Reply_Network_in_buffer_avg_util =       6.8123
Reply_Network_out_buffer_full_per_cycle =       0.0000
Reply_Network_out_buffer_avg_util =       0.3117
----------------------------END-of-Interconnect-DETAILS-------------------------


gpgpu_simulation_time = 0 days, 0 hrs, 7 min, 20 sec (440 sec)
gpgpu_simulation_rate = 141758 (inst/sec)
gpgpu_simulation_rate = 76 (cycle/sec)
gpgpu_silicon_slowdown = 14894736x
GPGPU-Sim: *** simulation thread exiting ***
GPGPU-Sim: ** break due to reaching the maximum cycles (or instructions) **
GPGPU-Sim: *** exit detected ***
