

        *** GPGPU-Sim Simulator Version 4.0.0  [build gpgpu-sim_git-commit-_modified_0.0] ***


GPGPU-Sim PTX: simulation mode 0 (can change with PTX_SIM_MODE_FUNC environment variable:
               1=functional simulation only, 0=detailed performance simulator)
GPGPU-Sim PTX: overriding embedded ptx with ptx file (PTX_SIM_USE_PTX_FILE is set)
GPGPU-Sim: Configuration options:

-save_embedded_ptx                      0 # saves ptx files embedded in binary as <n>.ptx
-keep                                   0 # keep intermediate files created by GPGPU-Sim when interfacing with external programs
-gpgpu_ptx_save_converted_ptxplus                    0 # Saved converted ptxplus to a file
-gpgpu_occupancy_sm_number                   70 # The SM number to pass to ptxas when getting register usage for computing GPU occupancy. This parameter is required in the config.
-ptx_opcode_latency_int      4,13,4,5,145,21 # Opcode latencies for integers <ADD,MAX,MUL,MAD,DIV,SHFL>Default 1,1,19,25,145,32
-ptx_opcode_latency_fp          4,13,4,5,39 # Opcode latencies for single precision floating points <ADD,MAX,MUL,MAD,DIV>Default 1,1,1,1,30
-ptx_opcode_latency_dp         8,19,8,8,330 # Opcode latencies for double precision floating points <ADD,MAX,MUL,MAD,DIV>Default 8,8,8,8,335
-ptx_opcode_latency_sfu                  100 # Opcode latencies for SFU instructionsDefault 8
-ptx_opcode_latency_tesnor                   64 # Opcode latencies for Tensor instructionsDefault 64
-ptx_opcode_initiation_int          2,2,2,2,8,4 # Opcode initiation intervals for integers <ADD,MAX,MUL,MAD,DIV,SHFL>Default 1,1,4,4,32,4
-ptx_opcode_initiation_fp            2,2,2,2,4 # Opcode initiation intervals for single precision floating points <ADD,MAX,MUL,MAD,DIV>Default 1,1,1,1,5
-ptx_opcode_initiation_dp          4,4,4,4,130 # Opcode initiation intervals for double precision floating points <ADD,MAX,MUL,MAD,DIV>Default 8,8,8,8,130
-ptx_opcode_initiation_sfu                    8 # Opcode initiation intervals for sfu instructionsDefault 8
-ptx_opcode_initiation_tensor                   64 # Opcode initiation intervals for tensor instructionsDefault 64
-cdp_latency         7200,8000,100,12000,1600 # CDP API latency <cudaStreamCreateWithFlags, cudaGetParameterBufferV2_init_perWarp, cudaGetParameterBufferV2_perKernel, cudaLaunchDeviceV2_init_perWarp, cudaLaunchDevicV2_perKernel>Default 7200,8000,100,12000,1600
-network_mode                           2 # Interconnection network mode
-inter_config_file                   mesh # Interconnection network config file
-icnt_in_buffer_limit                  512 # in_buffer_limit
-icnt_out_buffer_limit                  512 # out_buffer_limit
-icnt_subnets                           2 # subnets
-icnt_arbiter_algo                      1 # arbiter_algo
-icnt_verbose                           0 # inct_verbose
-icnt_grant_cycles                      1 # grant_cycles
-gpgpu_ptx_use_cuobjdump                    1 # Use cuobjdump to extract ptx and sass from binaries
-gpgpu_experimental_lib_support                    0 # Try to extract code from cuda libraries [Broken because of unknown cudaGetExportTable]
-checkpoint_option                      0 #  checkpointing flag (0 = no checkpoint)
-checkpoint_kernel                      1 #  checkpointing during execution of which kernel (1- 1st kernel)
-checkpoint_CTA                         0 #  checkpointing after # of CTA (< less than total CTA)
-resume_option                          0 #  resume flag (0 = no resume)
-resume_kernel                          0 #  Resume from which kernel (1= 1st kernel)
-resume_CTA                             0 #  resume from which CTA 
-checkpoint_CTA_t                       0 #  resume from which CTA 
-checkpoint_insn_Y                      0 #  resume from which CTA 
-gpgpu_ptx_convert_to_ptxplus                    0 # Convert SASS (native ISA) to ptxplus and run ptxplus
-gpgpu_ptx_force_max_capability                   70 # Force maximum compute capability
-gpgpu_ptx_inst_debug_to_file                    0 # Dump executed instructions' debug information to file
-gpgpu_ptx_inst_debug_file       inst_debug.txt # Executed instructions' debug output file
-gpgpu_ptx_inst_debug_thread_uid                    1 # Thread UID for executed instructions' debug output
-gpgpu_n_mem_for_l2wb_pcommit                   32 # number of memory modules (e.g. memory controllers) in gpu
-gpgpu_n_sub_partition_per_mchannel_for_l2wb_pcommit                    2 # number of memory subpartition in each memory module
-gpgpu_dl2_bsize_for_l2wb_pcommit                  128 # default 128 bytes
-gpgpu_simd_model                       1 # 1 = post-dominator
-gpgpu_shader_core_pipeline              2048:32 # shader core pipeline config, i.e., {<nthread>:<warpsize>}
-gpgpu_tex_cache:l1  N:4:128:256,L:R:m:N:L,T:512:8,128:2 # per-shader L1 texture cache  (READ-ONLY) config  {<nsets>:<bsize>:<assoc>,<rep>:<wr>:<alloc>:<wr_alloc>,<mshr>:<N>:<merge>,<mq>:<rf>}
-gpgpu_const_cache:l1 N:128:64:8,L:R:f:N:L,S:2:64,4 # per-shader L1 constant memory cache  (READ-ONLY) config  {<nsets>:<bsize>:<assoc>,<rep>:<wr>:<alloc>:<wr_alloc>,<mshr>:<N>:<merge>,<mq>} 
-gpgpu_cache:il1     N:64:128:16,L:R:f:N:L,S:2:48,4 # shader L1 instruction cache config  {<nsets>:<bsize>:<assoc>,<rep>:<wr>:<alloc>:<wr_alloc>,<mshr>:<N>:<merge>,<mq>} 
-gpgpu_cache:dl1     S:1:128:256,L:L:s:N:L,A:256:8,16:0,32 # per-shader L1 data cache config  {<nsets>:<bsize>:<assoc>,<rep>:<wr>:<alloc>:<wr_alloc>,<mshr>:<N>:<merge>,<mq> | none}
-gpgpu_l1_banks                         4 # The number of L1 cache banks
-gpgpu_l1_banks_byte_interleaving                   32 # l1 banks byte interleaving granularity
-gpgpu_l1_banks_hashing_function                    0 # l1 banks hashing function
-gpgpu_l1_latency                      20 # L1 Hit Latency
-gpgpu_smem_latency                    20 # smem Latency
-gpgpu_cache:dl1PrefL1                 none # per-shader L1 data cache config  {<nsets>:<bsize>:<assoc>,<rep>:<wr>:<alloc>:<wr_alloc>,<mshr>:<N>:<merge>,<mq> | none}
-gpgpu_cache:dl1PrefShared                 none # per-shader L1 data cache config  {<nsets>:<bsize>:<assoc>,<rep>:<wr>:<alloc>:<wr_alloc>,<mshr>:<N>:<merge>,<mq> | none}
-gpgpu_gmem_skip_L1D                    0 # global memory access skip L1D cache (implements -Xptxas -dlcm=cg, default=no skip)
-gpgpu_perfect_mem                      0 # enable perfect memory mode (no cache miss)
-n_regfile_gating_group                    4 # group of lanes that should be read/written together)
-gpgpu_clock_gated_reg_file                    0 # enable clock gated reg file for power calculations
-gpgpu_clock_gated_lanes                    0 # enable clock gated lanes for power calculations
-gpgpu_shader_registers                65536 # Number of registers per shader core. Limits number of concurrent CTAs. (default 8192)
-gpgpu_registers_per_block                65536 # Maximum number of registers per CTA. (default 8192)
-gpgpu_ignore_resources_limitation                    0 # gpgpu_ignore_resources_limitation (default 0)
-gpgpu_shader_cta                      32 # Maximum number of concurrent CTAs in shader (default 8)
-gpgpu_num_cta_barriers                   16 # Maximum number of named barriers per CTA (default 16)
-gpgpu_n_clusters                      80 # number of processing clusters
-gpgpu_n_cores_per_cluster                    1 # number of simd cores per cluster
-gpgpu_n_cluster_ejection_buffer_size                   32 # number of packets in ejection buffer
-gpgpu_n_ldst_response_buffer_size                    2 # number of response packets in ld/st unit ejection buffer
-gpgpu_shmem_per_block                65536 # Size of shared memory per thread block or CTA (default 48kB)
-gpgpu_shmem_size                   98304 # Size of shared memory per shader core (default 16kB)
-gpgpu_adaptive_cache_config            536870913 # adaptive_cache_config
-gpgpu_shmem_sizeDefault                98304 # Size of shared memory per shader core (default 16kB)
-gpgpu_shmem_size_PrefL1                16384 # Size of shared memory per shader core (default 16kB)
-gpgpu_shmem_size_PrefShared                16384 # Size of shared memory per shader core (default 16kB)
-gpgpu_shmem_num_banks                   32 # Number of banks in the shared memory in each shader core (default 16)
-gpgpu_shmem_limited_broadcast                    0 # Limit shared memory to do one broadcast per cycle (default on)
-gpgpu_shmem_warp_parts                    1 # Number of portions a warp is divided into for shared memory bank conflict check 
-gpgpu_mem_unit_ports                    1 # The number of memory transactions allowed per core cycle
-gpgpu_shmem_warp_parts                    1 # Number of portions a warp is divided into for shared memory bank conflict check 
-gpgpu_warpdistro_shader                   -1 # Specify which shader core to collect the warp size distribution from
-gpgpu_warp_issue_shader                    0 # Specify which shader core to collect the warp issue distribution from
-gpgpu_local_mem_map                    1 # Mapping from local memory space address to simulated GPU physical address space (default = enabled)
-gpgpu_num_reg_banks                   16 # Number of register banks (default = 8)
-gpgpu_reg_bank_use_warp_id                    0 # Use warp ID in mapping registers to banks (default = off)
-gpgpu_sub_core_model                    1 # Sub Core Volta/Pascal model (default = off)
-gpgpu_enable_specialized_operand_collector                    0 # enable_specialized_operand_collector
-gpgpu_operand_collector_num_units_sp                    4 # number of collector units (default = 4)
-gpgpu_operand_collector_num_units_dp                    0 # number of collector units (default = 0)
-gpgpu_operand_collector_num_units_sfu                    4 # number of collector units (default = 4)
-gpgpu_operand_collector_num_units_int                    0 # number of collector units (default = 0)
-gpgpu_operand_collector_num_units_tensor_core                    4 # number of collector units (default = 4)
-gpgpu_operand_collector_num_units_mem                    2 # number of collector units (default = 2)
-gpgpu_operand_collector_num_units_gen                    8 # number of collector units (default = 0)
-gpgpu_operand_collector_num_in_ports_sp                    1 # number of collector unit in ports (default = 1)
-gpgpu_operand_collector_num_in_ports_dp                    0 # number of collector unit in ports (default = 0)
-gpgpu_operand_collector_num_in_ports_sfu                    1 # number of collector unit in ports (default = 1)
-gpgpu_operand_collector_num_in_ports_int                    0 # number of collector unit in ports (default = 0)
-gpgpu_operand_collector_num_in_ports_tensor_core                    1 # number of collector unit in ports (default = 1)
-gpgpu_operand_collector_num_in_ports_mem                    1 # number of collector unit in ports (default = 1)
-gpgpu_operand_collector_num_in_ports_gen                    8 # number of collector unit in ports (default = 0)
-gpgpu_operand_collector_num_out_ports_sp                    1 # number of collector unit in ports (default = 1)
-gpgpu_operand_collector_num_out_ports_dp                    0 # number of collector unit in ports (default = 0)
-gpgpu_operand_collector_num_out_ports_sfu                    1 # number of collector unit in ports (default = 1)
-gpgpu_operand_collector_num_out_ports_int                    0 # number of collector unit in ports (default = 0)
-gpgpu_operand_collector_num_out_ports_tensor_core                    1 # number of collector unit in ports (default = 1)
-gpgpu_operand_collector_num_out_ports_mem                    1 # number of collector unit in ports (default = 1)
-gpgpu_operand_collector_num_out_ports_gen                    8 # number of collector unit in ports (default = 0)
-gpgpu_coalesce_arch                   60 # Coalescing arch (GT200 = 13, Fermi = 20)
-gpgpu_num_sched_per_core                    4 # Number of warp schedulers per core
-gpgpu_max_insn_issue_per_warp                    1 # Max number of instructions that can be issued per warp in one cycle by scheduler (either 1 or 2)
-gpgpu_dual_issue_diff_exec_units                    1 # should dual issue use two different execution unit resources (Default = 1)
-gpgpu_simt_core_sim_order                    1 # Select the simulation order of cores in a cluster (0=Fix, 1=Round-Robin)
-gpgpu_pipeline_widths 4,4,4,4,4,4,4,4,4,4,8,4,4 # Pipeline widths ID_OC_SP,ID_OC_DP,ID_OC_INT,ID_OC_SFU,ID_OC_MEM,OC_EX_SP,OC_EX_DP,OC_EX_INT,OC_EX_SFU,OC_EX_MEM,EX_WB,ID_OC_TENSOR_CORE,OC_EX_TENSOR_CORE
-gpgpu_tensor_core_avail                    1 # Tensor Core Available (default=0)
-gpgpu_num_sp_units                     4 # Number of SP units (default=1)
-gpgpu_num_dp_units                     4 # Number of DP units (default=0)
-gpgpu_num_int_units                    4 # Number of INT units (default=0)
-gpgpu_num_sfu_units                    4 # Number of SF units (default=1)
-gpgpu_num_tensor_core_units                    4 # Number of tensor_core units (default=1)
-gpgpu_num_mem_units                    1 # Number if ldst units (default=1) WARNING: not hooked up to anything
-gpgpu_scheduler                      gto # Scheduler configuration: < lrr | gto | two_level_active > If two_level_active:<num_active_warps>:<inner_prioritization>:<outer_prioritization>For complete list of prioritization values see shader.h enum scheduler_prioritization_typeDefault: gto
-gpgpu_concurrent_kernel_sm                    0 # Support concurrent kernels on a SM (default = disabled)
-gpgpu_perfect_inst_const_cache                    1 # perfect inst and const cache mode, so all inst and const hits in the cache(default = disabled)
-gpgpu_inst_fetch_throughput                    4 # the number of fetched intruction per warp each cycle
-gpgpu_reg_file_port_throughput                    2 # the number ports of the register file
-specialized_unit_1         0,4,4,4,4,BRA # specialized unit config {<enabled>,<num_units>:<latency>:<initiation>,<ID_OC_SPEC>:<OC_EX_SPEC>,<NAME>}
-specialized_unit_2         0,4,4,4,4,BRA # specialized unit config {<enabled>,<num_units>:<latency>:<initiation>,<ID_OC_SPEC>:<OC_EX_SPEC>,<NAME>}
-specialized_unit_3         0,4,4,4,4,BRA # specialized unit config {<enabled>,<num_units>:<latency>:<initiation>,<ID_OC_SPEC>:<OC_EX_SPEC>,<NAME>}
-specialized_unit_4         0,4,4,4,4,BRA # specialized unit config {<enabled>,<num_units>:<latency>:<initiation>,<ID_OC_SPEC>:<OC_EX_SPEC>,<NAME>}
-specialized_unit_5         0,4,4,4,4,BRA # specialized unit config {<enabled>,<num_units>:<latency>:<initiation>,<ID_OC_SPEC>:<OC_EX_SPEC>,<NAME>}
-specialized_unit_6         0,4,4,4,4,BRA # specialized unit config {<enabled>,<num_units>:<latency>:<initiation>,<ID_OC_SPEC>:<OC_EX_SPEC>,<NAME>}
-specialized_unit_7         0,4,4,4,4,BRA # specialized unit config {<enabled>,<num_units>:<latency>:<initiation>,<ID_OC_SPEC>:<OC_EX_SPEC>,<NAME>}
-specialized_unit_8         0,4,4,4,4,BRA # specialized unit config {<enabled>,<num_units>:<latency>:<initiation>,<ID_OC_SPEC>:<OC_EX_SPEC>,<NAME>}
-gpgpu_perf_sim_memcpy                    1 # Fill the L2 cache on memcpy
-gpgpu_simple_dram_model                    0 # simple_dram_model with fixed latency and BW
-gpgpu_dram_scheduler                    1 # 0 = fifo, 1 = FR-FCFS (defaul)
-gpgpu_dram_partition_queues          64:64:64:64 # i2$:$2d:d2$:$2i
-l2_ideal                               0 # Use a ideal L2 cache that always hit
-gpgpu_cache:dl2     S:32:128:24,L:B:m:L:P,A:192:4,32:0,32 # unified banked L2 data cache config  {<nsets>:<bsize>:<assoc>,<rep>:<wr>:<alloc>:<wr_alloc>,<mshr>:<N>:<merge>,<mq>}
-gpgpu_cache:dl2_texture_only                    0 # L2 cache used for texture only
-gpgpu_n_mem                           32 # number of memory modules (e.g. memory controllers) in gpu
-gpgpu_n_sub_partition_per_mchannel                    2 # number of memory subpartition in each memory module
-gpgpu_n_mem_per_ctrlr                    1 # number of memory chips per memory controller
-gpgpu_memlatency_stat                   14 # track and display latency statistics 0x2 enables MC, 0x4 enables queue logs
-gpgpu_frfcfs_dram_sched_queue_size                   64 # 0 = unlimited (default); # entries per chip
-gpgpu_dram_return_queue_size                  192 # 0 = unlimited (default); # entries per chip
-gpgpu_dram_buswidth                   16 # default = 4 bytes (8 bytes per cycle at DDR)
-gpgpu_dram_burst_length                    2 # Burst length of each DRAM request (default = 4 data bus cycle)
-dram_data_command_freq_ratio                    2 # Frequency ratio between DRAM data bus and command bus (default = 2 times, i.e. DDR)
-gpgpu_dram_timing_opt nbk=16:CCD=1:RRD=3:RCD=12:RAS=28:RP=12:RC=40: CL=12:WL=2:CDLR=3:WR=10:nbkgrp=4:CCDL=2:RTPL=3 # DRAM timing parameters = {nbk:tCCD:tRRD:tRCD:tRAS:tRP:tRC:CL:WL:tCDLR:tWR:nbkgrp:tCCDL:tRTPL}
-gpgpu_l2_rop_latency                  160 # ROP queue latency (default 85)
-dram_latency                         200 # DRAM latency (default 30)
-dram_write_latency                   600 # DRAM write latency (default 100)
-dram_dual_bus_interface                    1 # dual_bus_interface (default = 0) 
-dram_bnk_indexing_policy                    0 # dram_bnk_indexing_policy (0 = normal indexing, 1 = Xoring with the higher bits) (Default = 0)
-dram_bnkgrp_indexing_policy                    1 # dram_bnkgrp_indexing_policy (0 = take higher bits, 1 = take lower bits) (Default = 0)
-dram_seperate_write_queue_enable                    0 # Seperate_Write_Queue_Enable
-dram_write_queue_size             32:28:16 # Write_Queue_Size
-dram_elimnate_rw_turnaround                    0 # elimnate_rw_turnaround i.e set tWTR and tRTW = 0
-icnt_flit_size                        40 # icnt_flit_size
-gpgpu_mem_addr_mapping dramid@8;00000000.00000000.00000000.00000000.0000RRRR.RRRRRRRR.RBBBCCCB.CCCSSSSS # mapping memory address to dram model {dramid@<start bit>;<memory address map>}
-gpgpu_mem_addr_test                    0 # run sweep test to check address mapping for aliased address
-gpgpu_mem_address_mask                    1 # 0 = old addressing mask, 1 = new addressing mask, 2 = new add. mask + flipped bank sel and chip sel bits
-gpgpu_memory_partition_indexing                    0 # 0 = no indexing, 1 = bitwise xoring, 2 = IPoly, 3 = custom indexing
-gpuwattch_xml_file         gpuwattch.xml # GPUWattch XML file
-power_simulation_enabled                    0 # Turn on power simulator (1=On, 0=Off)
-power_per_cycle_dump                    0 # Dump detailed power output each cycle
-power_trace_enabled                    0 # produce a file for the power trace (1=On, 0=Off)
-power_trace_zlevel                     6 # Compression level of the power trace output log (0=no comp, 9=highest)
-steady_power_levels_enabled                    0 # produce a file for the steady power levels (1=On, 0=Off)
-steady_state_definition                  8:4 # allowed deviation:number of samples
-gpgpu_max_cycle                        0 # terminates gpu simulation early (0 = no limit)
-gpgpu_max_insn                         0 # terminates gpu simulation early (0 = no limit)
-gpgpu_max_cta                          0 # terminates gpu simulation early (0 = no limit)
-gpgpu_max_completed_cta                    0 # terminates gpu simulation early (0 = no limit)
-gpgpu_runtime_stat                   500 # display runtime statistics such as dram utilization {<freq>:<flag>}
-liveness_message_freq                    1 # Minimum number of seconds between simulation liveness messages (0 = always print)
-gpgpu_compute_capability_major                    7 # Major compute capability version number
-gpgpu_compute_capability_minor                    0 # Minor compute capability version number
-gpgpu_flush_l1_cache                    1 # Flush L1 cache at the end of each kernel call
-gpgpu_flush_l2_cache                    0 # Flush L2 cache at the end of each kernel call
-gpgpu_deadlock_detect                    1 # Stop the simulation at deadlock (1=on (default), 0=off)
-gpgpu_ptx_instruction_classification                    0 # if enabled will classify ptx instruction types per kernel (Max 255 kernels now)
-gpgpu_ptx_sim_mode                     0 # Select between Performance (default) or Functional simulation (1)
-gpgpu_clock_domains 1132.0:1132.0:1132.0:850.0 # Clock Domain Frequencies in MhZ {<Core Clock>:<ICNT Clock>:<L2 Clock>:<DRAM Clock>}
-gpgpu_max_concurrent_kernel                    8 # maximum kernels that can run concurrently on GPU
-gpgpu_cflog_interval                    0 # Interval between each snapshot in control flow logger
-visualizer_enabled               d9b91b3f1d9befa3997cda5fdfcc4804  /home/pli11/Desktop/re_test/ProgPow/progpow_search/undo_c_clwb/main
Extracting PTX file and ptxas options    1: main.1.sm_70.ptx -arch=sm_70
      0 # Turn on visualizer output (1=On, 0=Off)
-visualizer_outputfile                 NULL # Specifies the output log file for visualizer
-visualizer_zlevel                      6 # Compression level of the visualizer output log (0=no comp, 9=highest)
-gpgpu_stack_size_limit                 1024 # GPU thread stack size
-gpgpu_heap_size_limit              8388608 # GPU malloc heap size 
-gpgpu_runtime_sync_depth_limit                    2 # GPU device runtime synchronize depth
-gpgpu_runtime_pending_launch_count_limit                 2048 # GPU device runtime pending launch count
-trace_enabled                          0 # Turn on traces
-trace_components                    none # comma seperated list of traces to enable. Complete list found in trace_streams.tup. Default none
-trace_sampling_core                    0 # The core which is printed using CORE_DPRINTF. Default 0
-trace_sampling_memory_partition                   -1 # The memory partition which is printed using MEMPART_DPRINTF. Default -1 (i.e. all)
-enable_ptx_file_line_stats                    1 # Turn on PTX source line statistic profiling. (1 = On)
-ptx_line_stats_filename gpgpu_inst_stats.txt # Output file for PTX source line statistics.
-gpgpu_kernel_launch_latency                 5000 # Kernel launch latency in cycles. Default: 0
-gpgpu_cdp_enabled                      0 # Turn on CDP
-gpgpu_TB_launch_latency                    0 # thread block launch latency in cycles. Default: 0
DRAM Timing Options:
nbk                                    16 # number of banks
CCD                                     1 # column to column delay
RRD                                     3 # minimal delay between activation of rows in different banks
RCD                                    12 # row to column delay
RAS                                    28 # time needed to activate row
RP                                     12 # time needed to precharge (deactivate) row
RC                                     40 # row cycle time
CDLR                                    3 # switching from write to read (changes tWTR)
WR                                     10 # last data-in to row precharge
CL                                     12 # CAS latency
WL                                      2 # Write latency
nbkgrp                                  4 # number of bank groups
CCDL                                    2 # column to column delay between accesses to different bank groups
RTPL                                    3 # read to precharge delay between accesses to different bank groups
Total number of memory sub partition = 64
addr_dec_mask[CHIP]  = 0000000000001f00 	high:13 low:8
addr_dec_mask[BK]    = 00000000000e2000 	high:20 low:13
addr_dec_mask[ROW]   = 00000001fff00000 	high:33 low:20
addr_dec_mask[COL]   = 000000000001c0ff 	high:17 low:0
addr_dec_mask[BURST] = 000000000000001f 	high:5 low:0
sub_partition_id_mask = 0000000000002000
GPGPU-Sim uArch: clock freqs: 1132000000.000000:1132000000.000000:1132000000.000000:850000000.000000
GPGPU-Sim uArch: clock periods: 0.00000000088339222615:0.00000000088339222615:0.00000000088339222615:0.00000000117647058824
*** Initializing Memory Statistics ***
GPGPU-Sim uArch: performance model initialization complete.
self exe links to: /home/pli11/Desktop/re_test/ProgPow/progpow_search/undo_c_clwb/main
self exe links to: /home/pli11/Desktop/re_test/ProgPow/progpow_search/undo_c_clwb/main
10.1
GPGPU-Sim PTX: __cudaRegisterFatBinary, fat_cubin_handle = 1, filename=default
self exe links to: /home/pli11/Desktop/re_test/ProgPow/progpow_search/undo_c_clwb/main
Running md5sum using "md5sum /home/pli11/Desktop/re_test/ProgPow/progpow_search/undo_c_clwb/main "
self exe links to: /home/pli11/Desktop/re_test/ProgPow/progpow_search/undo_c_clwb/main
Extracting specific PTX file named main.1.sm_70.ptx 
GPGPU-Sim PTX: __cudaRegisterFunction _Z14progpow_searchm8hash32_tmPK5dag_tP14search_resultsb : hostFun 0x0x412913, fat_cubin_handle = 1
GPGPU-Sim PTX: Parsing main.1.sm_70.ptx
GPGPU-Sim PTX: allocating constant region for "keccakf_rndc" from 0x100 to 0x160 (global memory space) 1
GPGPU-Sim PTX: allocating global region for "NVM_log" from 0x180 to 0x4000180 (global memory space)
GPGPU-Sim PTX: allocating global region for "NVM_flag" from 0x4000180 to 0x4400180 (global memory space)
GPGPU-Sim PTX: allocating shared region for "_ZZ14progpow_searchm8hash32_tmPK5dag_tP14search_resultsbE5c_dag" from 0x0 to 0x4000 (shared memory space)
GPGPU-Sim PTX: Warning -- ignoring pragma 'nounroll'
GPGPU-Sim PTX: Warning -- ignoring pragma 'nounroll'
GPGPU-Sim PTX: Warning -- ignoring pragma 'nounroll'
GPGPU-Sim PTX: instruction assembly for function '_Z14progpow_searchm8hash32_tmPK5dag_tP14search_resultsb'...   done.
GPGPU-Sim PTX: finished parsing EMBEDDED .ptx file main.1.sm_70.ptx
GPGPU-Sim PTX: loading globals with explicit initializers... 
GPGPU-Sim PTX: finished loading globals (0 bytes total).
GPGPU-Sim PTX: loading constants with explicit initializers...  done.
GPGPU-Sim PTX: Loading PTXInfo from main.1.sm_70.ptx
GPGPU-Sim PTX: Binary info : gmem=71303168, cmem=96
GPGPU-Sim PTX: Kernel '_Z14progpow_searchm8hash32_tmPK5dag_tP14search_resultsb' : regs=56, lmem=0, smem=16384, cmem=425
GPGPU-Sim PTX: __cudaRegisterVar: hostVar = 0x41cba0; deviceAddress = keccakf_rndc; deviceName = keccakf_rndc
GPGPU-Sim PTX: __cudaRegisterVar: Registering const memory space of 96 bytes
GPGPU-Sim PTX registering constant keccakf_rndc (96 bytes) to name mapping
GPGPU-Sim PTX: __cudaRegisterVar: hostVar = 0x62c9a0; deviceAddress = NVM_log; deviceName = NVM_log
GPGPU-Sim PTX: __cudaRegisterVar: Registering const memory space of 67108864 bytes
GPGPU-Sim PTX registering global NVM_log hostVar to name mapping
GPGPU-Sim PTX: __cudaRegisterVar: hostVar = 0x462c9a0; deviceAddress = NVM_flag; deviceName = NVM_flag
GPGPU-Sim PTX: __cudaRegisterVar: Registering const memory space of 4194304 bytes
GPGPU-Sim PTX registering global NVM_flag hostVar to name mapping
Set Device to current
Resetting device
Generating mining buffers
GPGPU-Sim PTX: cudaStreamCreate
GPGPU-Sim PTX: cudaStreamCreate
GPGPU-Sim: synchronize waiting for inactive GPU simulation
GPGPU-Sim API: Stream Manager State
GPGPU-Sim: detected inactive GPU simulation thread
GPGPU-Sim PTX: Setting up arguments for 8 bytes starting at 0x7ffc4978cca8..
GPGPU-Sim PTX: Setting up arguments for 32 bytes starting at 0x7ffc4978cd60..
GPGPU-Sim PTX: Setting up arguments for 8 bytes starting at 0x7ffc4978cc98..
GPGPU-Sim PTX: Setting up arguments for 8 bytes starting at 0x7ffc4978cc90..
GPGPU-Sim PTX: Setting up arguments for 8 bytes starting at 0x7ffc4978cc88..
GPGPU-Sim PTX: Setting up arguments for 1 bytes starting at 0x7ffc4978cc84..

GPGPU-Sim PTX: cudaLaunch for 0x0x412913 (mode=performance simulation) on stream 2
GPGPU-Sim PTX: finding reconvergence points for '_Z14progpow_searchm8hash32_tmPK5dag_tP14search_resultsb'...
GPGPU-Sim PTX: Finding dominators for '_Z14progpow_searchm8hash32_tmPK5dag_tP14search_resultsb'...
GPGPU-Sim PTX: Finding immediate dominators for '_Z14progpow_searchm8hash32_tmPK5dag_tP14search_resultsb'...
GPGPU-Sim PTX: Finding postdominators for '_Z14progpow_searchm8hash32_tmPK5dag_tP14search_resultsb'...
GPGPU-Sim PTX: Finding immediate postdominators for '_Z14progpow_searchm8hash32_tmPK5dag_tP14search_resultsb'...
GPGPU-Sim PTX: pre-decoding instructions for '_Z14progpow_searchm8hash32_tmPK5dag_tP14search_resultsb'...
GPGPU-Sim PTX: reconvergence points for _Z14progpow_searchm8hash32_tmPK5dag_tP14search_resultsb...
GPGPU-Sim PTX:  1 (potential) branch divergence @  PC=0x040 (main.1.sm_70.ptx:43) @%p2 bra BB0_3;
GPGPU-Sim PTX:    immediate post dominator      @  PC=0x0c0 (main.1.sm_70.ptx:64) bar.sync 0;
GPGPU-Sim PTX:  2 (potential) branch divergence @  PC=0x0b8 (main.1.sm_70.ptx:61) @%p3 bra BB0_2;
GPGPU-Sim PTX:    immediate post dominator      @  PC=0x0c0 (main.1.sm_70.ptx:64) bar.sync 0;
GPGPU-Sim PTX:  3 (potential) branch divergence @  PC=0x12b8 (main.1.sm_70.ptx:646) @%p6 bra BB0_6;
GPGPU-Sim PTX:    immediate post dominator      @  PC=0x2288 (main.1.sm_70.ptx:1482) mov.u32 %r1254, 4127;
GPGPU-Sim PTX:  4 (potential) branch divergence @  PC=0x12c0 (main.1.sm_70.ptx:647) bra.uni BB0_5;
GPGPU-Sim PTX:    immediate post dominator      @  PC=0x1aa0 (main.1.sm_70.ptx:1066) mov.u32 %r1252, 4127;
GPGPU-Sim PTX:  5 (potential) branch divergence @  PC=0x1a90 (main.1.sm_70.ptx:1061) @%p10 bra BB0_6;
GPGPU-Sim PTX:    immediate post dominator      @  PC=0x1a98 (main.1.sm_70.ptx:1062) bra.uni BB0_7;
GPGPU-Sim PTX:  6 (potential) branch divergence @  PC=0x1a98 (main.1.sm_70.ptx:1062) bra.uni BB0_7;
GPGPU-Sim PTX:    immediate post dominator      @  PC=0x2288 (main.1.sm_70.ptx:1482) mov.u32 %r1254, 4127;
GPGPU-Sim PTX:  7 (potential) branch divergence @  PC=0x2278 (main.1.sm_70.ptx:1478) @%p8 bra BB0_7;
GPGPU-Sim PTX:    immediate post dominator      @  PC=0x2288 (main.1.sm_70.ptx:1482) mov.u32 %r1254, 4127;
GPGPU-Sim PTX:  8 (potential) branch divergence @  PC=0x2280 (main.1.sm_70.ptx:1479) bra.uni BB0_5;
GPGPU-Sim PTX:    immediate post dominator      @  PC=0x1aa0 (main.1.sm_70.ptx:1066) mov.u32 %r1252, 4127;
GPGPU-Sim PTX:  9 (potential) branch divergence @  PC=0x2660 (main.1.sm_70.ptx:1605) @%p27 bra BB0_9;
GPGPU-Sim PTX:    immediate post dominator      @  PC=0x26a8 (main.1.sm_70.ptx:1617) add.s32 %r1272, %r1272, 1;
GPGPU-Sim PTX: 10 (potential) branch divergence @  PC=0x26b8 (main.1.sm_70.ptx:1619) @%p28 bra BB0_4;
GPGPU-Sim PTX:    immediate post dominator      @  PC=0x26c0 (main.1.sm_70.ptx:1621) ld.param.u64 %rd48, [_Z14progpow_searchm8hash32_tmPK5dag_tP14search_resultsb_param_2];
GPGPU-Sim PTX: 11 (potential) branch divergence @  PC=0x26d0 (main.1.sm_70.ptx:1623) @%p29 bra BB0_16;
GPGPU-Sim PTX:    immediate post dominator      @  PC=0x29d0 (main.1.sm_70.ptx:1764) ret;
GPGPU-Sim PTX: 12 (potential) branch divergence @  PC=0x26f8 (main.1.sm_70.ptx:1629) @%p30 bra BB0_16;
GPGPU-Sim PTX:    immediate post dominator      @  PC=0x29d0 (main.1.sm_70.ptx:1764) ret;
GPGPU-Sim PTX: 13 (potential) branch divergence @  PC=0x27b8 (main.1.sm_70.ptx:1658) @%p31 bra BB0_14;
GPGPU-Sim PTX:    immediate post dominator      @  PC=0x2830 (main.1.sm_70.ptx:1682) mov.u32 %r1262, %ctaid.x;
GPGPU-Sim PTX: 14 (potential) branch divergence @  PC=0x2950 (main.1.sm_70.ptx:1738) @!%p1 bra BB0_16;
GPGPU-Sim PTX:    immediate post dominator      @  PC=0x29d0 (main.1.sm_70.ptx:1764) ret;
GPGPU-Sim PTX: 15 (potential) branch divergence @  PC=0x2958 (main.1.sm_70.ptx:1739) bra.uni BB0_15;
GPGPU-Sim PTX:    immediate post dominator      @  PC=0x2960 (main.1.sm_70.ptx:1742) mov.u32 %r1256, %ctaid.x;
GPGPU-Sim PTX: ... end of reconvergence points for _Z14progpow_searchm8hash32_tmPK5dag_tP14search_resultsb
GPGPU-Sim PTX: ... done pre-decoding instructions for '_Z14progpow_searchm8hash32_tmPK5dag_tP14search_resultsb'.
GPGPU-Sim PTX: pushing kernel '_Z14progpow_searchm8hash32_tmPK5dag_tP14search_resultsb' to stream 2, gridDim= (4,1,1) blockDim = (256,1,1) 
GPGPU-Sim: synchronize waiting for inactive GPU simulation
GPGPU-Sim API: Stream Manager State
GPGPU-Sim API:    stream 2 has 1 operations
GPGPU-Sim API:       0 :  stream operation kernel
GPGPU-Sim uArch: Shader 0 bind to kernel 1 '_Z14progpow_searchm8hash32_tmPK5dag_tP14search_resultsb'
GPGPU-Sim uArch: CTA/core = 4, limited by: regs
GPGPU-Sim: Reconfigure L1 cache to 112KB
GPGPU-Sim uArch: Shader 1 bind to kernel 1 '_Z14progpow_searchm8hash32_tmPK5dag_tP14search_resultsb'
GPGPU-Sim uArch: Shader 2 bind to kernel 1 '_Z14progpow_searchm8hash32_tmPK5dag_tP14search_resultsb'
GPGPU-Sim uArch: Shader 3 bind to kernel 1 '_Z14progpow_searchm8hash32_tmPK5dag_tP14search_resultsb'
Destroy streams for kernel 1: size 0
kernel_name = _Z14progpow_searchm8hash32_tmPK5dag_tP14search_resultsb 
kernel_launch_uid = 1 
gpu_sim_cycle = 1527468
gpu_sim_insn = 276764780
gpu_ipc =     181.1919
gpu_tot_sim_cycle = 1527468
gpu_tot_sim_insn = 276764780
gpu_tot_ipc =     181.1919
gpu_tot_issued_cta = 4
gpu_occupancy = 12.4983% 
gpu_tot_occupancy = 12.4983% 
max_total_param_size = 0
gpu_stall_dramfull = 0
gpu_stall_icnt2sh    = 0
partiton_level_parallism =       0.0150
partiton_level_parallism_total  =       0.0150
partiton_level_parallism_util =       2.8069
partiton_level_parallism_util_total  =       2.8069
L2_BW  =       0.5440 GB/Sec
L2_BW_total  =       0.5440 GB/Sec
gpu_total_sim_rate=60574

========= Core cache stats =========
L1I_cache:
	L1I_total_cache_accesses = 0
	L1I_total_cache_misses = 0
	L1I_total_cache_pending_hits = 0
	L1I_total_cache_reservation_fails = 0
L1D_cache:
	L1D_cache_core[0]: Access = 68713, Miss = 3145, Miss_rate = 0.046, Pending_hits = 0, Reservation_fails = 0
	L1D_cache_core[1]: Access = 68714, Miss = 3146, Miss_rate = 0.046, Pending_hits = 0, Reservation_fails = 0
	L1D_cache_core[2]: Access = 68715, Miss = 3147, Miss_rate = 0.046, Pending_hits = 0, Reservation_fails = 0
	L1D_cache_core[3]: Access = 68695, Miss = 3127, Miss_rate = 0.046, Pending_hits = 0, Reservation_fails = 0
	L1D_cache_core[4]: Access = 0, Miss = 0, Miss_rate = -nan, Pending_hits = 0, Reservation_fails = 0
	L1D_cache_core[5]: Access = 0, Miss = 0, Miss_rate = -nan, Pending_hits = 0, Reservation_fails = 0
	L1D_cache_core[6]: Access = 0, Miss = 0, Miss_rate = -nan, Pending_hits = 0, Reservation_fails = 0
	L1D_cache_core[7]: Access = 0, Miss = 0, Miss_rate = -nan, Pending_hits = 0, Reservation_fails = 0
	L1D_cache_core[8]: Access = 0, Miss = 0, Miss_rate = -nan, Pending_hits = 0, Reservation_fails = 0
	L1D_cache_core[9]: Access = 0, Miss = 0, Miss_rate = -nan, Pending_hits = 0, Reservation_fails = 0
	L1D_cache_core[10]: Access = 0, Miss = 0, Miss_rate = -nan, Pending_hits = 0, Reservation_fails = 0
	L1D_cache_core[11]: Access = 0, Miss = 0, Miss_rate = -nan, Pending_hits = 0, Reservation_fails = 0
	L1D_cache_core[12]: Access = 0, Miss = 0, Miss_rate = -nan, Pending_hits = 0, Reservation_fails = 0
	L1D_cache_core[13]: Access = 0, Miss = 0, Miss_rate = -nan, Pending_hits = 0, Reservation_fails = 0
	L1D_cache_core[14]: Access = 0, Miss = 0, Miss_rate = -nan, Pending_hits = 0, Reservation_fails = 0
	L1D_cache_core[15]: Access = 0, Miss = 0, Miss_rate = -nan, Pending_hits = 0, Reservation_fails = 0
	L1D_cache_core[16]: Access = 0, Miss = 0, Miss_rate = -nan, Pending_hits = 0, Reservation_fails = 0
	L1D_cache_core[17]: Access = 0, Miss = 0, Miss_rate = -nan, Pending_hits = 0, Reservation_fails = 0
	L1D_cache_core[18]: Access = 0, Miss = 0, Miss_rate = -nan, Pending_hits = 0, Reservation_fails = 0
	L1D_cache_core[19]: Access = 0, Miss = 0, Miss_rate = -nan, Pending_hits = 0, Reservation_fails = 0
	L1D_cache_core[20]: Access = 0, Miss = 0, Miss_rate = -nan, Pending_hits = 0, Reservation_fails = 0
	L1D_cache_core[21]: Access = 0, Miss = 0, Miss_rate = -nan, Pending_hits = 0, Reservation_fails = 0
	L1D_cache_core[22]: Access = 0, Miss = 0, Miss_rate = -nan, Pending_hits = 0, Reservation_fails = 0
	L1D_cache_core[23]: Access = 0, Miss = 0, Miss_rate = -nan, Pending_hits = 0, Reservation_fails = 0
	L1D_cache_core[24]: Access = 0, Miss = 0, Miss_rate = -nan, Pending_hits = 0, Reservation_fails = 0
	L1D_cache_core[25]: Access = 0, Miss = 0, Miss_rate = -nan, Pending_hits = 0, Reservation_fails = 0
	L1D_cache_core[26]: Access = 0, Miss = 0, Miss_rate = -nan, Pending_hits = 0, Reservation_fails = 0
	L1D_cache_core[27]: Access = 0, Miss = 0, Miss_rate = -nan, Pending_hits = 0, Reservation_fails = 0
	L1D_cache_core[28]: Access = 0, Miss = 0, Miss_rate = -nan, Pending_hits = 0, Reservation_fails = 0
	L1D_cache_core[29]: Access = 0, Miss = 0, Miss_rate = -nan, Pending_hits = 0, Reservation_fails = 0
	L1D_cache_core[30]: Access = 0, Miss = 0, Miss_rate = -nan, Pending_hits = 0, Reservation_fails = 0
	L1D_cache_core[31]: Access = 0, Miss = 0, Miss_rate = -nan, Pending_hits = 0, Reservation_fails = 0
	L1D_cache_core[32]: Access = 0, Miss = 0, Miss_rate = -nan, Pending_hits = 0, Reservation_fails = 0
	L1D_cache_core[33]: Access = 0, Miss = 0, Miss_rate = -nan, Pending_hits = 0, Reservation_fails = 0
	L1D_cache_core[34]: Access = 0, Miss = 0, Miss_rate = -nan, Pending_hits = 0, Reservation_fails = 0
	L1D_cache_core[35]: Access = 0, Miss = 0, Miss_rate = -nan, Pending_hits = 0, Reservation_fails = 0
	L1D_cache_core[36]: Access = 0, Miss = 0, Miss_rate = -nan, Pending_hits = 0, Reservation_fails = 0
	L1D_cache_core[37]: Access = 0, Miss = 0, Miss_rate = -nan, Pending_hits = 0, Reservation_fails = 0
	L1D_cache_core[38]: Access = 0, Miss = 0, Miss_rate = -nan, Pending_hits = 0, Reservation_fails = 0
	L1D_cache_core[39]: Access = 0, Miss = 0, Miss_rate = -nan, Pending_hits = 0, Reservation_fails = 0
	L1D_cache_core[40]: Access = 0, Miss = 0, Miss_rate = -nan, Pending_hits = 0, Reservation_fails = 0
	L1D_cache_core[41]: Access = 0, Miss = 0, Miss_rate = -nan, Pending_hits = 0, Reservation_fails = 0
	L1D_cache_core[42]: Access = 0, Miss = 0, Miss_rate = -nan, Pending_hits = 0, Reservation_fails = 0
	L1D_cache_core[43]: Access = 0, Miss = 0, Miss_rate = -nan, Pending_hits = 0, Reservation_fails = 0
	L1D_cache_core[44]: Access = 0, Miss = 0, Miss_rate = -nan, Pending_hits = 0, Reservation_fails = 0
	L1D_cache_core[45]: Access = 0, Miss = 0, Miss_rate = -nan, Pending_hits = 0, Reservation_fails = 0
	L1D_cache_core[46]: Access = 0, Miss = 0, Miss_rate = -nan, Pending_hits = 0, Reservation_fails = 0
	L1D_cache_core[47]: Access = 0, Miss = 0, Miss_rate = -nan, Pending_hits = 0, Reservation_fails = 0
	L1D_cache_core[48]: Access = 0, Miss = 0, Miss_rate = -nan, Pending_hits = 0, Reservation_fails = 0
	L1D_cache_core[49]: Access = 0, Miss = 0, Miss_rate = -nan, Pending_hits = 0, Reservation_fails = 0
	L1D_cache_core[50]: Access = 0, Miss = 0, Miss_rate = -nan, Pending_hits = 0, Reservation_fails = 0
	L1D_cache_core[51]: Access = 0, Miss = 0, Miss_rate = -nan, Pending_hits = 0, Reservation_fails = 0
	L1D_cache_core[52]: Access = 0, Miss = 0, Miss_rate = -nan, Pending_hits = 0, Reservation_fails = 0
	L1D_cache_core[53]: Access = 0, Miss = 0, Miss_rate = -nan, Pending_hits = 0, Reservation_fails = 0
	L1D_cache_core[54]: Access = 0, Miss = 0, Miss_rate = -nan, Pending_hits = 0, Reservation_fails = 0
	L1D_cache_core[55]: Access = 0, Miss = 0, Miss_rate = -nan, Pending_hits = 0, Reservation_fails = 0
	L1D_cache_core[56]: Access = 0, Miss = 0, Miss_rate = -nan, Pending_hits = 0, Reservation_fails = 0
	L1D_cache_core[57]: Access = 0, Miss = 0, Miss_rate = -nan, Pending_hits = 0, Reservation_fails = 0
	L1D_cache_core[58]: Access = 0, Miss = 0, Miss_rate = -nan, Pending_hits = 0, Reservation_fails = 0
	L1D_cache_core[59]: Access = 0, Miss = 0, Miss_rate = -nan, Pending_hits = 0, Reservation_fails = 0
	L1D_cache_core[60]: Access = 0, Miss = 0, Miss_rate = -nan, Pending_hits = 0, Reservation_fails = 0
	L1D_cache_core[61]: Access = 0, Miss = 0, Miss_rate = -nan, Pending_hits = 0, Reservation_fails = 0
	L1D_cache_core[62]: Access = 0, Miss = 0, Miss_rate = -nan, Pending_hits = 0, Reservation_fails = 0
	L1D_cache_core[63]: Access = 0, Miss = 0, Miss_rate = -nan, Pending_hits = 0, Reservation_fails = 0
	L1D_cache_core[64]: Access = 0, Miss = 0, Miss_rate = -nan, Pending_hits = 0, Reservation_fails = 0
	L1D_cache_core[65]: Access = 0, Miss = 0, Miss_rate = -nan, Pending_hits = 0, Reservation_fails = 0
	L1D_cache_core[66]: Access = 0, Miss = 0, Miss_rate = -nan, Pending_hits = 0, Reservation_fails = 0
	L1D_cache_core[67]: Access = 0, Miss = 0, Miss_rate = -nan, Pending_hits = 0, Reservation_fails = 0
	L1D_cache_core[68]: Access = 0, Miss = 0, Miss_rate = -nan, Pending_hits = 0, Reservation_fails = 0
	L1D_cache_core[69]: Access = 0, Miss = 0, Miss_rate = -nan, Pending_hits = 0, Reservation_fails = 0
	L1D_cache_core[70]: Access = 0, Miss = 0, Miss_rate = -nan, Pending_hits = 0, Reservation_fails = 0
	L1D_cache_core[71]: Access = 0, Miss = 0, Miss_rate = -nan, Pending_hits = 0, Reservation_fails = 0
	L1D_cache_core[72]: Access = 0, Miss = 0, Miss_rate = -nan, Pending_hits = 0, Reservation_fails = 0
	L1D_cache_core[73]: Access = 0, Miss = 0, Miss_rate = -nan, Pending_hits = 0, Reservation_fails = 0
	L1D_cache_core[74]: Access = 0, Miss = 0, Miss_rate = -nan, Pending_hits = 0, Reservation_fails = 0
	L1D_cache_core[75]: Access = 0, Miss = 0, Miss_rate = -nan, Pending_hits = 0, Reservation_fails = 0
	L1D_cache_core[76]: Access = 0, Miss = 0, Miss_rate = -nan, Pending_hits = 0, Reservation_fails = 0
	L1D_cache_core[77]: Access = 0, Miss = 0, Miss_rate = -nan, Pending_hits = 0, Reservation_fails = 0
	L1D_cache_core[78]: Access = 0, Miss = 0, Miss_rate = -nan, Pending_hits = 0, Reservation_fails = 0
	L1D_cache_core[79]: Access = 0, Miss = 0, Miss_rate = -nan, Pending_hits = 0, Reservation_fails = 0
	L1D_total_cache_accesses = 274837
	L1D_total_cache_misses = 12565
	L1D_total_cache_miss_rate = 0.0457
	L1D_total_cache_pending_hits = 0
	L1D_total_cache_reservation_fails = 0
	L1D_cache_data_port_util = 0.043
	L1D_cache_fill_port_util = 0.001
L1C_cache:
	L1C_total_cache_accesses = 0
	L1C_total_cache_misses = 0
	L1C_total_cache_pending_hits = 0
	L1C_total_cache_reservation_fails = 0
L1T_cache:
	L1T_total_cache_accesses = 0
	L1T_total_cache_misses = 0
	L1T_total_cache_pending_hits = 0
	L1T_total_cache_reservation_fails = 0

Total_core_cache_stats:
	Total_core_cache_stats_breakdown[GLOBAL_ACC_R][HIT] = 262144
	Total_core_cache_stats_breakdown[GLOBAL_ACC_R][HIT_RESERVED] = 0
	Total_core_cache_stats_breakdown[GLOBAL_ACC_R][MISS] = 3070
	Total_core_cache_stats_breakdown[GLOBAL_ACC_R][RESERVATION_FAIL] = 0
	Total_core_cache_stats_breakdown[GLOBAL_ACC_R][SECTOR_MISS] = 2
	Total_core_cache_stats_breakdown[LOCAL_ACC_R][HIT] = 0
	Total_core_cache_stats_breakdown[LOCAL_ACC_R][HIT_RESERVED] = 0
	Total_core_cache_stats_breakdown[LOCAL_ACC_R][MISS] = 0
	Total_core_cache_stats_breakdown[LOCAL_ACC_R][RESERVATION_FAIL] = 0
	Total_core_cache_stats_breakdown[LOCAL_ACC_R][SECTOR_MISS] = 0
	Total_core_cache_stats_breakdown[CONST_ACC_R][HIT] = 0
	Total_core_cache_stats_breakdown[CONST_ACC_R][HIT_RESERVED] = 0
	Total_core_cache_stats_breakdown[CONST_ACC_R][MISS] = 0
	Total_core_cache_stats_breakdown[CONST_ACC_R][RESERVATION_FAIL] = 0
	Total_core_cache_stats_breakdown[CONST_ACC_R][SECTOR_MISS] = 0
	Total_core_cache_stats_breakdown[TEXTURE_ACC_R][HIT] = 0
	Total_core_cache_stats_breakdown[TEXTURE_ACC_R][HIT_RESERVED] = 0
	Total_core_cache_stats_breakdown[TEXTURE_ACC_R][MISS] = 0
	Total_core_cache_stats_breakdown[TEXTURE_ACC_R][RESERVATION_FAIL] = 0
	Total_core_cache_stats_breakdown[TEXTURE_ACC_R][SECTOR_MISS] = 0
	Total_core_cache_stats_breakdown[GLOBAL_ACC_W][HIT] = 128
	Total_core_cache_stats_breakdown[GLOBAL_ACC_W][HIT_RESERVED] = 0
	Total_core_cache_stats_breakdown[GLOBAL_ACC_W][MISS] = 9493
	Total_core_cache_stats_breakdown[GLOBAL_ACC_W][RESERVATION_FAIL] = 0
	Total_core_cache_stats_breakdown[GLOBAL_ACC_W][SECTOR_MISS] = 0
	Total_core_cache_stats_breakdown[LOCAL_ACC_W][HIT] = 0
	Total_core_cache_stats_breakdown[LOCAL_ACC_W][HIT_RESERVED] = 0
	Total_core_cache_stats_breakdown[LOCAL_ACC_W][MISS] = 0
	Total_core_cache_stats_breakdown[LOCAL_ACC_W][RESERVATION_FAIL] = 0
	Total_core_cache_stats_breakdown[LOCAL_ACC_W][SECTOR_MISS] = 0
	Total_core_cache_stats_breakdown[L1_WRBK_ACC][HIT] = 0
	Total_core_cache_stats_breakdown[L1_WRBK_ACC][HIT_RESERVED] = 0
	Total_core_cache_stats_breakdown[L1_WRBK_ACC][MISS] = 0
	Total_core_cache_stats_breakdown[L1_WRBK_ACC][RESERVATION_FAIL] = 0
	Total_core_cache_stats_breakdown[L1_WRBK_ACC][SECTOR_MISS] = 0
	Total_core_cache_stats_breakdown[L2_WRBK_ACC][HIT] = 0
	Total_core_cache_stats_breakdown[L2_WRBK_ACC][HIT_RESERVED] = 0
	Total_core_cache_stats_breakdown[L2_WRBK_ACC][MISS] = 0
	Total_core_cache_stats_breakdown[L2_WRBK_ACC][RESERVATION_FAIL] = 0
	Total_core_cache_stats_breakdown[L2_WRBK_ACC][SECTOR_MISS] = 0
	Total_core_cache_stats_breakdown[INST_ACC_R][HIT] = 0
	Total_core_cache_stats_breakdown[INST_ACC_R][HIT_RESERVED] = 0
	Total_core_cache_stats_breakdown[INST_ACC_R][MISS] = 0
	Total_core_cache_stats_breakdown[INST_ACC_R][RESERVATION_FAIL] = 0
	Total_core_cache_stats_breakdown[INST_ACC_R][SECTOR_MISS] = 0
	Total_core_cache_stats_breakdown[L1_WR_ALLOC_R][HIT] = 0
	Total_core_cache_stats_breakdown[L1_WR_ALLOC_R][HIT_RESERVED] = 0
	Total_core_cache_stats_breakdown[L1_WR_ALLOC_R][MISS] = 0
	Total_core_cache_stats_breakdown[L1_WR_ALLOC_R][RESERVATION_FAIL] = 0
	Total_core_cache_stats_breakdown[L1_WR_ALLOC_R][SECTOR_MISS] = 0
	Total_core_cache_stats_breakdown[L2_WR_ALLOC_R][HIT] = 0
	Total_core_cache_stats_breakdown[L2_WR_ALLOC_R][HIT_RESERVED] = 0
	Total_core_cache_stats_breakdown[L2_WR_ALLOC_R][MISS] = 0
	Total_core_cache_stats_breakdown[L2_WR_ALLOC_R][RESERVATION_FAIL] = 0
	Total_core_cache_stats_breakdown[L2_WR_ALLOC_R][SECTOR_MISS] = 0
	Total_core_cache_stats_breakdown[GLOBAL_ACC_R][TOTAL_ACCESS] = 265216
	Total_core_cache_stats_breakdown[GLOBAL_ACC_W][TOTAL_ACCESS] = 9621

Total_core_cache_fail_stats:
Shader 0 warp_id issue ditsribution:
warp_id:
0, 1, 2, 3, 4, 5, 6, 7, 
distro:
267377, 267348, 267348, 267348, 267348, 267348, 267348, 267348, 
gpgpu_n_tot_thrd_icount = 276913792
gpgpu_n_tot_w_icount = 8653556
gpgpu_n_stall_shd_mem = 749165
gpgpu_n_mem_read_local = 0
gpgpu_n_mem_write_local = 0
gpgpu_n_mem_read_global = 4096
gpgpu_n_mem_write_global = 18845
gpgpu_n_mem_texture = 0
gpgpu_n_mem_const = 0
gpgpu_n_load_insn  = 1054720
gpgpu_n_store_insn = 19472
gpgpu_n_shmem_insn = 11550720
gpgpu_n_sstarr_insn = 0
gpgpu_n_tex_insn = 0
gpgpu_n_const_mem_insn = 0
gpgpu_n_param_mem_insn = 6144
gpgpu_n_shmem_bkconflict = 0
gpgpu_n_cache_bkconflict = 0
gpgpu_n_intrawarp_mshr_merge = 0
gpgpu_n_cmem_portconflict = 0
gpgpu_stall_shd_mem[c_mem][resource_stall] = 0
gpgpu_stall_shd_mem[s_mem][bk_conf] = 497664
gpgpu_stall_shd_mem[gl_mem][resource_stall] = 241581
gpgpu_stall_shd_mem[gl_mem][coal_stall] = 9920
gpgpu_stall_shd_mem[gl_mem][data_port_stall] = 0
gpu_reg_bank_conflict_stalls = 0
Warp Occupancy Distribution:
Stall:57573	W0_Idle:34047	W0_Scoreboard:15711996	W1:116	W2:4096	W3:0	W4:0	W5:0	W6:0	W7:0	W8:0	W9:0	W10:0	W11:0	W12:0	W13:0	W14:0	W15:0	W16:0	W17:0	W18:0	W19:0	W20:0	W21:0	W22:0	W23:0	W24:0	W25:0	W26:0	W27:0	W28:0	W29:0	W30:0	W31:0	W32:8551040
single_issue_nums: WS0:2138900	WS1:2138784	WS2:2138784	WS3:2138784	
dual_issue_nums: WS0:0	WS1:0	WS2:0	WS3:0	
traffic_breakdown_coretomem[GLOBAL_ACC_R] = 24576 {8:3072,}
traffic_breakdown_coretomem[GLOBAL_ACC_W] = 458632 {8:9224,40:9621,}
traffic_breakdown_coretomem[GLOBAL_ATOMIC] = 40960 {40:1024,}
traffic_breakdown_memtocore[GLOBAL_ACC_R] = 122880 {40:3072,}
traffic_breakdown_memtocore[GLOBAL_ACC_W] = 150760 {8:18845,}
traffic_breakdown_memtocore[GLOBAL_ATOMIC] = 40960 {40:1024,}
maxmflatency = 931 
max_icnt2mem_latency = 503 
maxmrqlatency = 95 
max_icnt2sh_latency = 746 
averagemflatency = 295 
avg_icnt2mem_latency = 36 
avg_mrq_latency = 9 
avg_icnt2sh_latency = 81 
mrq_lat_table:1871 	1765 	1670 	2030 	1453 	502 	4 	0 	0 	0 	0 	0 	0 	0 	0 	0 	0 	0 	0 	0 	0 	0 	0 	0 	0 	0 	0 	0 	0 	0 	0 	0 	
dq_lat_table:0 	0 	0 	0 	0 	0 	0 	0 	0 	0 	0 	0 	0 	0 	0 	0 	0 	0 	0 	0 	0 	0 	0 	0 	0 	0 	0 	0 	0 	0 	0 	0 	
mf_lat_table:0 	0 	0 	0 	0 	0 	0 	13116 	7616 	2209 	0 	0 	0 	0 	0 	0 	0 	0 	0 	0 	0 	0 	0 	0 	0 	0 	0 	0 	0 	0 	0 	0 	
icnt2mem_lat_table:0 	5057 	3242 	1073 	10380 	1412 	390 	548 	839 	0 	0 	0 	0 	0 	0 	0 	0 	0 	0 	0 	0 	0 	0 	0 	
icnt2sh_lat_table:0 	5168 	1232 	1568 	2764 	4158 	3884 	2368 	1477 	322 	0 	0 	0 	0 	0 	0 	0 	0 	0 	0 	0 	0 	0 	0 	
mf_lat_pw_table:0 	0 	0 	0 	0 	0 	0 	7 	13 	1 	0 	0 	0 	0 	0 	0 	0 	0 	0 	0 	0 	0 	0 	0 	0 	0 	0 	0 	0 	0 	0 	0 	
maximum concurrent accesses to same row:
dram[0]:         8         8         0         0         0         0         0         0         0         0         0         0         0         0         0         0 
dram[1]:        20         8         0         0         0         0         0         0         0         0         0         0         0         0         0         0 
dram[2]:         8         8         0         0         0         0         0         0         0         0         0         0         0         0         0         0 
dram[3]:         8         8         0         0         0         0         0         0         0         0         0         0         0         0         0         0 
dram[4]:         8         8         0         0         0         0         0         0         0         0         0         0         0         0         0         0 
dram[5]:         8         8         0         0         0         0         0         0         0         0         0         0         0         0         0         0 
dram[6]:         8         8         0         0         0         0         0         0         0         0         0         0         0         0         0         0 
dram[7]:         8         8         0         0         0         0         0         0         0         0         0         0         0         0         0         0 
dram[8]:         8         8         0         0         0         0         0         0         0         0         0         0         0         0         0         0 
dram[9]:         8         8         0         0         0         0         0         0         0         0         0         0         0         0         0         0 
dram[10]:         8         8         0         0         0         0         0         0         0         0         0         0         0         0         0         0 
dram[11]:         8         8         0         0         0         0         0         0         0         0         0         0         0         0         0         0 
dram[12]:         8         8         0         0         0         0         0         0         0         0         0         0         0         0         0         0 
dram[13]:         8         8         0         0         0         0         0         0         0         0         0         0         0         0         0         0 
dram[14]:         8         8         0         0         0         0         0         0         0         0         0         0         0         0         0         0 
dram[15]:         8         8         0         0         0         0         0         0         0         0         0         0         0         0         0         0 
dram[16]:         8         8         0         0         0         0         0         0         0         0         0         0         0         0         0         0 
dram[17]:         8         8         0         0         0         0         0         0         0         0         0         0         0         0         0         0 
dram[18]:         8         8         0         0         0         0         0         0         0         0         0         0         0         0         0         0 
dram[19]:         8         8         0         0         0         0         0         0         0         0         0         0         0         0         0         0 
dram[20]:         8         8         0         0         0         0         0         0         0         0         0         0         0         0         0         0 
dram[21]:         8         8         0         0         0         0         0         0         0         0         0         0         0         0         0         0 
dram[22]:         8         8         0         0         0         0         0         0         0         0         0         0         0         0         0         0 
dram[23]:         8         8         0         0         0         0         0         0         0         0         0         0         0         0         0         0 
dram[24]:         8         8         0         0         0         0         0         0         0         0         0         0         0         0         0         0 
dram[25]:         8         8         0         0         0         0         0         0         0         0         0         0         0         0         0         0 
dram[26]:         8         8         0         0         0         0         0         0         0         0         0         0         0         0         0         0 
dram[27]:         8         8         0         0         0         0         0         0         0         0         0         0         0         0         0         0 
dram[28]:         8         8         0         0         0         0         0         0         0         0         0         0         0         0         0         0 
dram[29]:         8         8         0         0         0         0         0         0         0         0         0         0         0         0         0         0 
dram[30]:         8         8         0         0         0         0         0         0         0         0         0         0         0         0         0         0 
dram[31]:         8         8         0         0         0         0         0         0         0         0         0         0         0         0         0         0 
maximum service time to same row:
dram[0]:   1517390   1516317         0         0         0         0         0         0         0         0         0         0         0         0         0         0 
dram[1]:   1517420   1516346         0         0         0         0         0         0         0         0         0         0         0         0         0         0 
dram[2]:   1517674   1516606         0         0         0         0         0         0         0         0         0         0         0         0         0         0 
dram[3]:   1517700   1516634         0         0         0         0         0         0         0         0         0         0         0         0         0         0 
dram[4]:   1517612   1516663         0         0         0         0         0         0         0         0         0         0         0         0         0         0 
dram[5]:   1517641   1516694         0         0         0         0         0         0         0         0         0         0         0         0         0         0 
dram[6]:   1517552   1516606         0         0         0         0         0         0         0         0         0         0         0         0         0         0 
dram[7]:   1517579   1516631         0         0         0         0         0         0         0         0         0         0         0         0         0         0 
dram[8]:   1517594   1516546         0         0         0         0         0         0         0         0         0         0         0         0         0         0 
dram[9]:   1517618   1516571         0         0         0         0         0         0         0         0         0         0         0         0         0         0 
dram[10]:   1517360   1516312         0         0         0         0         0         0         0         0         0         0         0         0         0         0 
dram[11]:   1517413   1516338         0         0         0         0         0         0         0         0         0         0         0         0         0         0 
dram[12]:   1517438   1516365         0         0         0         0         0         0         0         0         0         0         0         0         0         0 
dram[13]:   1517462   1516390         0         0         0         0         0         0         0         0         0         0         0         0         0         0 
dram[14]:   1517547   1516478         0         0         0         0         0         0         0         0         0         0         0         0         0         0 
dram[15]:   1517570   1516506         0         0         0         0         0         0         0         0         0         0         0         0         0         0 
dram[16]:   1516947   1515880         0         0         0         0         0         0         0         0         0         0         0         0         0         0 
dram[17]:   1516907   1515910         0         0         0         0         0         0         0         0         0         0         0         0         0         0 
dram[18]:   1517164   1516170         0         0         0         0         0         0         0         0         0         0         0         0         0         0 
dram[19]:   1517189   1516197         0         0         0         0         0         0         0         0         0         0         0         0         0         0 
dram[20]:   1517100   1516101         0         0         0         0         0         0         0         0         0         0         0         0         0         0 
dram[21]:   1517131   1516067         0         0         0         0         0         0         0         0         0         0         0         0         0         0 
dram[22]:   1517041   1515977         0         0         0         0         0         0         0         0         0         0         0         0         0         0 
dram[23]:   1517068   1516004         0         0         0         0         0         0         0         0         0         0         0         0         0         0 
dram[24]:   1516981   1515917         0         0         0         0         0         0         0         0         0         0         0         0         0         0 
dram[25]:   1517008   1515944         0         0         0         0         0         0         0         0         0         0         0         0         0         0 
dram[26]:   1516747   1515683         0         0         0         0         0         0         0         0         0         0         0         0         0         0 
dram[27]:   1516775   1515712         0         0         0         0         0         0         0         0         0         0         0         0         0         0 
dram[28]:   1516800   1515739         0         0         0         0         0         0         0         0         0         0         0         0         0         0 
dram[29]:   1516827   1515764         0         0         0         0         0         0         0         0         0         0         0         0         0         0 
dram[30]:   1516915   1515851         0         0         0         0         0         0         0         0         0         0         0         0         0         0 
dram[31]:   1516941   1515877         0         0         0         0         0         0         0         0         0         0         0         0         0         0 
average row accesses per activate:
dram[0]: 99.500000 68.000000      -nan      -nan      -nan      -nan      -nan      -nan      -nan      -nan      -nan      -nan      -nan      -nan      -nan      -nan 
dram[1]: 25.375000 68.000000      -nan      -nan      -nan      -nan      -nan      -nan      -nan      -nan      -nan      -nan      -nan      -nan      -nan      -nan 
dram[2]: 100.000000 68.000000      -nan      -nan      -nan      -nan      -nan      -nan      -nan      -nan      -nan      -nan      -nan      -nan      -nan      -nan 
dram[3]: 100.000000 68.000000      -nan      -nan      -nan      -nan      -nan      -nan      -nan      -nan      -nan      -nan      -nan      -nan      -nan      -nan 
dram[4]: 100.000000 68.000000      -nan      -nan      -nan      -nan      -nan      -nan      -nan      -nan      -nan      -nan      -nan      -nan      -nan      -nan 
dram[5]: 100.000000 67.500000      -nan      -nan      -nan      -nan      -nan      -nan      -nan      -nan      -nan      -nan      -nan      -nan      -nan      -nan 
dram[6]: 100.000000 61.500000      -nan      -nan      -nan      -nan      -nan      -nan      -nan      -nan      -nan      -nan      -nan      -nan      -nan      -nan 
dram[7]: 100.000000 64.500000      -nan      -nan      -nan      -nan      -nan      -nan      -nan      -nan      -nan      -nan      -nan      -nan      -nan      -nan 
dram[8]: 100.000000 63.000000      -nan      -nan      -nan      -nan      -nan      -nan      -nan      -nan      -nan      -nan      -nan      -nan      -nan      -nan 
dram[9]: 100.000000 63.500000      -nan      -nan      -nan      -nan      -nan      -nan      -nan      -nan      -nan      -nan      -nan      -nan      -nan      -nan 
dram[10]: 100.000000 64.500000      -nan      -nan      -nan      -nan      -nan      -nan      -nan      -nan      -nan      -nan      -nan      -nan      -nan      -nan 
dram[11]: 100.000000 63.000000      -nan      -nan      -nan      -nan      -nan      -nan      -nan      -nan      -nan      -nan      -nan      -nan      -nan      -nan 
dram[12]: 100.000000 63.000000      -nan      -nan      -nan      -nan      -nan      -nan      -nan      -nan      -nan      -nan      -nan      -nan      -nan      -nan 
dram[13]: 100.000000 63.500000      -nan      -nan      -nan      -nan      -nan      -nan      -nan      -nan      -nan      -nan      -nan      -nan      -nan      -nan 
dram[14]: 100.000000 58.000000      -nan      -nan      -nan      -nan      -nan      -nan      -nan      -nan      -nan      -nan      -nan      -nan      -nan      -nan 
dram[15]: 100.000000 59.500000      -nan      -nan      -nan      -nan      -nan      -nan      -nan      -nan      -nan      -nan      -nan      -nan      -nan      -nan 
dram[16]: 68.500000 60.500000      -nan      -nan      -nan      -nan      -nan      -nan      -nan      -nan      -nan      -nan      -nan      -nan      -nan      -nan 
dram[17]: 68.000000 59.500000      -nan      -nan      -nan      -nan      -nan      -nan      -nan      -nan      -nan      -nan      -nan      -nan      -nan      -nan 
dram[18]: 57.000000 60.000000      -nan      -nan      -nan      -nan      -nan      -nan      -nan      -nan      -nan      -nan      -nan      -nan      -nan      -nan 
dram[19]: 57.500000 61.000000      -nan      -nan      -nan      -nan      -nan      -nan      -nan      -nan      -nan      -nan      -nan      -nan      -nan      -nan 
dram[20]: 57.500000 64.500000      -nan      -nan      -nan      -nan      -nan      -nan      -nan      -nan      -nan      -nan      -nan      -nan      -nan      -nan 
dram[21]: 57.500000 65.500000      -nan      -nan      -nan      -nan      -nan      -nan      -nan      -nan      -nan      -nan      -nan      -nan      -nan      -nan 
dram[22]: 62.500000 64.000000      -nan      -nan      -nan      -nan      -nan      -nan      -nan      -nan      -nan      -nan      -nan      -nan      -nan      -nan 
dram[23]: 68.000000 64.000000      -nan      -nan      -nan      -nan      -nan      -nan      -nan      -nan      -nan      -nan      -nan      -nan      -nan      -nan 
dram[24]: 68.000000 64.000000      -nan      -nan      -nan      -nan      -nan      -nan      -nan      -nan      -nan      -nan      -nan      -nan      -nan      -nan 
dram[25]: 68.000000 65.500000      -nan      -nan      -nan      -nan      -nan      -nan      -nan      -nan      -nan      -nan      -nan      -nan      -nan      -nan 
dram[26]: 68.000000 65.000000      -nan      -nan      -nan      -nan      -nan      -nan      -nan      -nan      -nan      -nan      -nan      -nan      -nan      -nan 
dram[27]: 57.500000 64.000000      -nan      -nan      -nan      -nan      -nan      -nan      -nan      -nan      -nan      -nan      -nan      -nan      -nan      -nan 
dram[28]: 58.500000 64.000000      -nan      -nan      -nan      -nan      -nan      -nan      -nan      -nan      -nan      -nan      -nan      -nan      -nan      -nan 
dram[29]: 59.500000 64.500000      -nan      -nan      -nan      -nan      -nan      -nan      -nan      -nan      -nan      -nan      -nan      -nan      -nan      -nan 
dram[30]: 60.000000 65.000000      -nan      -nan      -nan      -nan      -nan      -nan      -nan      -nan      -nan      -nan      -nan      -nan      -nan      -nan 
dram[31]: 64.000000 64.000000      -nan      -nan      -nan      -nan      -nan      -nan      -nan      -nan      -nan      -nan      -nan      -nan      -nan      -nan 
average row locality = 9295/134 = 69.365669
number of total memory accesses made:
dram[0]:         0         0         0         0         0         0         0         0         0         0         0         0         0         0         0         0 
dram[1]:         0         0         0         0         0         0         0         0         0         0         0         0         0         0         0         0 
dram[2]:         0         0         0         0         0         0         0         0         0         0         0         0         0         0         0         0 
dram[3]:         0         0         0         0         0         0         0         0         0         0         0         0         0         0         0         0 
dram[4]:         0         0         0         0         0         0         0         0         0         0         0         0         0         0         0         0 
dram[5]:         0         0         0         0         0         0         0         0         0         0         0         0         0         0         0         0 
dram[6]:         0         0         0         0         0         0         0         0         0         0         0         0         0         0         0         0 
dram[7]:         0         0         0         0         0         0         0         0         0         0         0         0         0         0         0         0 
dram[8]:         0         0         0         0         0         0         0         0         0         0         0         0         0         0         0         0 
dram[9]:         0         0         0         0         0         0         0         0         0         0         0         0         0         0         0         0 
dram[10]:         0         0         0         0         0         0         0         0         0         0         0         0         0         0         0         0 
dram[11]:         0         0         0         0         0         0         0         0         0         0         0         0         0         0         0         0 
dram[12]:         0         0         0         0         0         0         0         0         0         0         0         0         0         0         0         0 
dram[13]:         0         0         0         0         0         0         0         0         0         0         0         0         0         0         0         0 
dram[14]:         0         0         0         0         0         0         0         0         0         0         0         0         0         0         0         0 
dram[15]:         0         0         0         0         0         0         0         0         0         0         0         0         0         0         0         0 
dram[16]:         0         0         0         0         0         0         0         0         0         0         0         0         0         0         0         0 
dram[17]:         0         0         0         0         0         0         0         0         0         0         0         0         0         0         0         0 
dram[18]:         0         0         0         0         0         0         0         0         0         0         0         0         0         0         0         0 
dram[19]:         0         0         0         0         0         0         0         0         0         0         0         0         0         0         0         0 
dram[20]:         0         0         0         0         0         0         0         0         0         0         0         0         0         0         0         0 
dram[21]:         0         0         0         0         0         0         0         0         0         0         0         0         0         0         0         0 
dram[22]:         0         0         0         0         0         0         0         0         0         0         0         0         0         0         0         0 
dram[23]:         0         0         0         0         0         0         0         0         0         0         0         0         0         0         0         0 
dram[24]:         0         0         0         0         0         0         0         0         0         0         0         0         0         0         0         0 
dram[25]:         0         0         0         0         0         0         0         0         0         0         0         0         0         0         0         0 
dram[26]:         0         0         0         0         0         0         0         0         0         0         0         0         0         0         0         0 
dram[27]:         0         0         0         0         0         0         0         0         0         0         0         0         0         0         0         0 
dram[28]:         0         0         0         0         0         0         0         0         0         0         0         0         0         0         0         0 
dram[29]:         0         0         0         0         0         0         0         0         0         0         0         0         0         0         0         0 
dram[30]:         0         0         0         0         0         0         0         0         0         0         0         0         0         0         0         0 
dram[31]:         0         0         0         0         0         0         0         0         0         0         0         0         0         0         0         0 
total accesses: 0
min_bank_accesses = 0!
min_chip_accesses = 0!
number of total read accesses:
dram[0]:         8         8         0         0         0         0         0         0         0         0         0         0         0         0         0         0 
dram[1]:         8         8         0         0         0         0         0         0         0         0         0         0         0         0         0         0 
dram[2]:         8         8         0         0         0         0         0         0         0         0         0         0         0         0         0         0 
dram[3]:         8         8         0         0         0         0         0         0         0         0         0         0         0         0         0         0 
dram[4]:         8         8         0         0         0         0         0         0         0         0         0         0         0         0         0         0 
dram[5]:         8         8         0         0         0         0         0         0         0         0         0         0         0         0         0         0 
dram[6]:         8         8         0         0         0         0         0         0         0         0         0         0         0         0         0         0 
dram[7]:         8         8         0         0         0         0         0         0         0         0         0         0         0         0         0         0 
dram[8]:         8         8         0         0         0         0         0         0         0         0         0         0         0         0         0         0 
dram[9]:         8         8         0         0         0         0         0         0         0         0         0         0         0         0         0         0 
dram[10]:         8         8         0         0         0         0         0         0         0         0         0         0         0         0         0         0 
dram[11]:         8         8         0         0         0         0         0         0         0         0         0         0         0         0         0         0 
dram[12]:         8         8         0         0         0         0         0         0         0         0         0         0         0         0         0         0 
dram[13]:         8         8         0         0         0         0         0         0         0         0         0         0         0         0         0         0 
dram[14]:         8         8         0         0         0         0         0         0         0         0         0         0         0         0         0         0 
dram[15]:         8         8         0         0         0         0         0         0         0         0         0         0         0         0         0         0 
dram[16]:         8         8         0         0         0         0         0         0         0         0         0         0         0         0         0         0 
dram[17]:         8         8         0         0         0         0         0         0         0         0         0         0         0         0         0         0 
dram[18]:         8         8         0         0         0         0         0         0         0         0         0         0         0         0         0         0 
dram[19]:         8         8         0         0         0         0         0         0         0         0         0         0         0         0         0         0 
dram[20]:         8         8         0         0         0         0         0         0         0         0         0         0         0         0         0         0 
dram[21]:         8         8         0         0         0         0         0         0         0         0         0         0         0         0         0         0 
dram[22]:         8         8         0         0         0         0         0         0         0         0         0         0         0         0         0         0 
dram[23]:         8         8         0         0         0         0         0         0         0         0         0         0         0         0         0         0 
dram[24]:         8         8         0         0         0         0         0         0         0         0         0         0         0         0         0         0 
dram[25]:         8         8         0         0         0         0         0         0         0         0         0         0         0         0         0         0 
dram[26]:         8         8         0         0         0         0         0         0         0         0         0         0         0         0         0         0 
dram[27]:         8         8         0         0         0         0         0         0         0         0         0         0         0         0         0         0 
dram[28]:         8         8         0         0         0         0         0         0         0         0         0         0         0         0         0         0 
dram[29]:         8         8         0         0         0         0         0         0         0         0         0         0         0         0         0         0 
dram[30]:         8         8         0         0         0         0         0         0         0         0         0         0         0         0         0         0 
dram[31]:         8         8         0         0         0         0         0         0         0         0         0         0         0         0         0         0 
total dram reads = 512
min_bank_accesses = 0!
chip skew: 16/16 = 1.00
number of total write accesses:
dram[0]:       528       326         0         0         0         0         0         0         0         0         0         0         0         0         0         0 
dram[1]:       521       323         0         0         0         0         0         0         0         0         0         0         0         0         0         0 
dram[2]:       518       321         0         0         0         0         0         0         0         0         0         0         0         0         0         0 
dram[3]:       517       323         0         0         0         0         0         0         0         0         0         0         0         0         0         0 
dram[4]:       512       325         0         0         0         0         0         0         0         0         0         0         0         0         0         0 
dram[5]:       526       337         0         0         0         0         0         0         0         0         0         0         0         0         0         0 
dram[6]:       527       295         0         0         0         0         0         0         0         0         0         0         0         0         0         0 
dram[7]:       528       324         0         0         0         0         0         0         0         0         0         0         0         0         0         0 
dram[8]:       531       293         0         0         0         0         0         0         0         0         0         0         0         0         0         0 
dram[9]:       553       297         0         0         0         0         0         0         0         0         0         0         0         0         0         0 
dram[10]:       572       315         0         0         0         0         0         0         0         0         0         0         0         0         0         0 
dram[11]:       553       299         0         0         0         0         0         0         0         0         0         0         0         0         0         0 
dram[12]:       553       298         0         0         0         0         0         0         0         0         0         0         0         0         0         0 
dram[13]:       552       292         0         0         0         0         0         0         0         0         0         0         0         0         0         0 
dram[14]:       558       232         0         0         0         0         0         0         0         0         0         0         0         0         0         0 
dram[15]:       549       254         0         0         0         0         0         0         0         0         0         0         0         0         0         0 
dram[16]:       410       264         0         0         0         0         0         0         0         0         0         0         0         0         0         0 
dram[17]:       360       245         0         0         0         0         0         0         0         0         0         0         0         0         0         0 
dram[18]:       281       253         0         0         0         0         0         0         0         0         0         0         0         0         0         0 
dram[19]:       274       279         0         0         0         0         0         0         0         0         0         0         0         0         0         0 
dram[20]:       283       319         0         0         0         0         0         0         0         0         0         0         0         0         0         0 
[...]
Ready @ 4581519 -   mf: uid=14540204, sid4294967295:w4294967295, part=30, addr=0xc81e80, store, size=96, L2_WRBK  status = IN_PARTITION_DRAM_LATENCY_QUEUE (4580919), 
Ready @ 4581520 -   mf: uid=14540207, sid4294967295:w4294967295, part=30, addr=0xc81e80, store, size=64, L2_WRBK  status = IN_PARTITION_DRAM_LATENCY_QUEUE (4580920), 
Ready @ 4581521 -   mf: uid=14540210, sid4294967295:w4294967295, part=30, addr=0xc81e80, store, size=32, L2_WRBK  status = IN_PARTITION_DRAM_LATENCY_QUEUE (4580921), 
Ready @ 4581523 -   mf: uid=14540213, sid4294967295:w4294967295, part=30, addr=0xc81e00, store, size=96, L2_WRBK  status = IN_PARTITION_DRAM_LATENCY_QUEUE (4580923), 
Ready @ 4581524 -   mf: uid=14540216, sid4294967295:w4294967295, part=30, addr=0xc81e00, store, size=64, L2_WRBK  status = IN_PARTITION_DRAM_LATENCY_QUEUE (4580924), 
Ready @ 4581525 -   mf: uid=14540220, sid4294967295:w4294967295, part=30, addr=0xc81e00, store, size=32, L2_WRBK  status = IN_PARTITION_DRAM_LATENCY_QUEUE (4580925), 
Ready @ 4581567 -   mf: uid=14540284, sid4294967295:w4294967295, part=30, addr=0xc87e80, store, size=32, L2_WRBK  status = IN_PARTITION_DRAM_LATENCY_QUEUE (4580967), 
Ready @ 4581568 -   mf: uid=14540285, sid4294967295:w4294967295, part=30, addr=0xc87e00, store, size=32, L2_WRBK  status = IN_PARTITION_DRAM_LATENCY_QUEUE (4580968), 
DRAM[30]: 16 bks, busW=16 BL=2 CL=12, tRRD=3 tCCD=1, tRCD=12 tRAS=28 tRP=12 tRC=40
n_cmd=3440098 n_nop=3438180 n_act=8 n_pre=2 n_ref_event=0 n_req=756 n_rd=16 n_rd_L2_A=0 n_write=0 n_wr_bk=1892 bw_util=0.0005546
n_activity=4560 dram_eff=0.4184
bk0: 8a 3439594i bk1: 8a 3439555i bk2: 0a 3440098i bk3: 0a 3440098i bk4: 0a 3439591i bk5: 0a 3439695i bk6: 0a 3440098i bk7: 0a 3440098i bk8: 0a 3439640i bk9: 0a 3439624i bk10: 0a 3440098i bk11: 0a 3440098i bk12: 0a 3440098i bk13: 0a 3440098i bk14: 0a 3440098i bk15: 0a 3440098i 

------------------------------------------------------------------------

Row_Buffer_Locality = 0.989348
Row_Buffer_Locality_read = 0.875000
Row_Buffer_Locality_write = 0.991837
Bank_Level_Parallism = 1.096745
Bank_Level_Parallism_Col = 1.093362
Bank_Level_Parallism_Ready = 1.011530
write_to_read_ratio_blp_rw_average = 0.984238
GrpLevelPara = 1.093362 

BW Util details:
bwutil = 0.000555 
total_CMD = 3440098 
util_bw = 1908 
Wasted_Col = 1398 
Wasted_Row = 12 
Idle = 3436780 

BW Util Bottlenecks: 
RCDc_limit = 24 
RCDWRc_limit = 52 
WTRc_limit = 0 
RTWc_limit = 0 
CCDLc_limit = 1329 
rwq = 0 
CCDLc_limit_alone = 1329 
WTRc_limit_alone = 0 
RTWc_limit_alone = 0 

Commands details: 
total_CMD = 3440098 
n_nop = 3438180 
Read = 16 
Write = 0 
L2_Alloc = 0 
L2_WB = 1892 
n_act = 8 
n_pre = 2 
n_ref = 0 
n_req = 756 
total_req = 1908 

Dual Bus Interface Util: 
issued_total_row = 10 
issued_total_col = 1908 
Row_Bus_Util =  0.000003 
CoL_Bus_Util = 0.000555 
Either_Row_CoL_Bus_Util = 0.000558 
Issued_on_Two_Bus_Simul_Util = 0.000000 
issued_two_Eff = 0.000000 
queue_avg = 0.001047 


dram_util_bins: 0 0 0 0 0 0 0 0 0 0
dram_eff_bins: 0 0 0 0 0 0 0 0 0 0
mrqq: max=7 avg=0.00104735
Memory Partition 31: 
Cache L2_bank_062:
MSHR contents

Cache L2_bank_063:
MSHR contents

In Dram Latency Queue (total = 20): 
Ready @ 4581438 -   mf: uid=14540026, sid4294967295:w4294967295, part=31, addr=0xc87f80, store, size=32, L2_WRBK  status = IN_PARTITION_DRAM_LATENCY_QUEUE (4580838), 
Ready @ 4581439 -   mf: uid=14540028, sid4294967295:w4294967295, part=31, addr=0xc87f00, store, size=32, L2_WRBK  status = IN_PARTITION_DRAM_LATENCY_QUEUE (4580839), 
Ready @ 4581446 -   mf: uid=14540052, sid4294967295:w4294967295, part=31, addr=0xc81f80, store, size=128, L2_WRBK  status = IN_PARTITION_DRAM_LATENCY_QUEUE (4580846), 
Ready @ 4581447 -   mf: uid=14540055, sid4294967295:w4294967295, part=31, addr=0xc81f80, store, size=96, L2_WRBK  status = IN_PARTITION_DRAM_LATENCY_QUEUE (4580847), 
Ready @ 4581448 -   mf: uid=14540058, sid4294967295:w4294967295, part=31, addr=0xc81f80, store, size=64, L2_WRBK  status = IN_PARTITION_DRAM_LATENCY_QUEUE (4580848), 
Ready @ 4581450 -   mf: uid=14540061, sid4294967295:w4294967295, part=31, addr=0xc81f80, store, size=32, L2_WRBK  status = IN_PARTITION_DRAM_LATENCY_QUEUE (4580850), 
Ready @ 4581451 -   mf: uid=14540064, sid4294967295:w4294967295, part=31, addr=0xc81f00, store, size=96, L2_WRBK  status = IN_PARTITION_DRAM_LATENCY_QUEUE (4580851), 
Ready @ 4581452 -   mf: uid=14540067, sid4294967295:w4294967295, part=31, addr=0xc81f00, store, size=64, L2_WRBK  status = IN_PARTITION_DRAM_LATENCY_QUEUE (4580852), 
Ready @ 4581454 -   mf: uid=14540070, sid4294967295:w4294967295, part=31, addr=0xc81f00, store, size=32, L2_WRBK  status = IN_PARTITION_DRAM_LATENCY_QUEUE (4580854), 
Ready @ 4581502 -   mf: uid=14540154, sid4294967295:w4294967295, part=31, addr=0xc87f80, store, size=32, L2_WRBK  status = IN_PARTITION_DRAM_LATENCY_QUEUE (4580902), 
Ready @ 4581503 -   mf: uid=14540156, sid4294967295:w4294967295, part=31, addr=0xc87f00, store, size=32, L2_WRBK  status = IN_PARTITION_DRAM_LATENCY_QUEUE (4580903), 
Ready @ 4581510 -   mf: uid=14540180, sid4294967295:w4294967295, part=31, addr=0xc81f80, store, size=128, L2_WRBK  status = IN_PARTITION_DRAM_LATENCY_QUEUE (4580910), 
Ready @ 4581511 -   mf: uid=14540183, sid4294967295:w4294967295, part=31, addr=0xc81f80, store, size=96, L2_WRBK  status = IN_PARTITION_DRAM_LATENCY_QUEUE (4580911), 
Ready @ 4581512 -   mf: uid=14540186, sid4294967295:w4294967295, part=31, addr=0xc81f80, store, size=64, L2_WRBK  status = IN_PARTITION_DRAM_LATENCY_QUEUE (4580912), 
Ready @ 4581513 -   mf: uid=14540189, sid4294967295:w4294967295, part=31, addr=0xc81f80, store, size=32, L2_WRBK  status = IN_PARTITION_DRAM_LATENCY_QUEUE (4580913), 
Ready @ 4581515 -   mf: uid=14540192, sid4294967295:w4294967295, part=31, addr=0xc81f00, store, size=96, L2_WRBK  status = IN_PARTITION_DRAM_LATENCY_QUEUE (4580915), 
Ready @ 4581516 -   mf: uid=14540195, sid4294967295:w4294967295, part=31, addr=0xc81f00, store, size=64, L2_WRBK  status = IN_PARTITION_DRAM_LATENCY_QUEUE (4580916), 
Ready @ 4581517 -   mf: uid=14540198, sid4294967295:w4294967295, part=31, addr=0xc81f00, store, size=32, L2_WRBK  status = IN_PARTITION_DRAM_LATENCY_QUEUE (4580917), 
Ready @ 4581565 -   mf: uid=14540282, sid4294967295:w4294967295, part=31, addr=0xc87f80, store, size=32, L2_WRBK  status = IN_PARTITION_DRAM_LATENCY_QUEUE (4580965), 
Ready @ 4581567 -   mf: uid=14540283, sid4294967295:w4294967295, part=31, addr=0xc87f00, store, size=32, L2_WRBK  status = IN_PARTITION_DRAM_LATENCY_QUEUE (4580967), 
DRAM[31]: 16 bks, busW=16 BL=2 CL=12, tRRD=3 tCCD=1, tRCD=12 tRAS=28 tRP=12 tRC=40
n_cmd=3440098 n_nop=3438198 n_act=8 n_pre=2 n_ref_event=0 n_req=754 n_rd=16 n_rd_L2_A=0 n_write=0 n_wr_bk=1874 bw_util=0.0005494
n_activity=4515 dram_eff=0.4186
bk0: 8a 3439602i bk1: 8a 3439574i bk2: 0a 3440098i bk3: 0a 3440098i bk4: 0a 3439588i bk5: 0a 3439697i bk6: 0a 3440098i bk7: 0a 3440098i bk8: 0a 3439640i bk9: 0a 3439631i bk10: 0a 3440098i bk11: 0a 3440098i bk12: 0a 3440098i bk13: 0a 3440098i bk14: 0a 3440098i bk15: 0a 3440098i 

------------------------------------------------------------------------

Row_Buffer_Locality = 0.989333
Row_Buffer_Locality_read = 0.875000
Row_Buffer_Locality_write = 0.991826
Bank_Level_Parallism = 1.104135
Bank_Level_Parallism_Col = 1.100739
Bank_Level_Parallism_Ready = 1.016931
write_to_read_ratio_blp_rw_average = 0.983980
GrpLevelPara = 1.100739 

BW Util details:
bwutil = 0.000549 
total_CMD = 3440098 
util_bw = 1890 
Wasted_Col = 1363 
Wasted_Row = 12 
Idle = 3436833 

BW Util Bottlenecks: 
RCDc_limit = 24 
RCDWRc_limit = 52 
WTRc_limit = 0 
RTWc_limit = 0 
CCDLc_limit = 1294 
rwq = 0 
CCDLc_limit_alone = 1294 
WTRc_limit_alone = 0 
RTWc_limit_alone = 0 

Commands details: 
total_CMD = 3440098 
n_nop = 3438198 
Read = 16 
Write = 0 
L2_Alloc = 0 
L2_WB = 1874 
n_act = 8 
n_pre = 2 
n_ref = 0 
n_req = 754 
total_req = 1890 

Dual Bus Interface Util: 
issued_total_row = 10 
issued_total_col = 1890 
Row_Bus_Util =  0.000003 
CoL_Bus_Util = 0.000549 
Either_Row_CoL_Bus_Util = 0.000552 
Issued_on_Two_Bus_Simul_Util = 0.000000 
issued_two_Eff = 0.000000 
queue_avg = 0.000946 


dram_util_bins: 0 0 0 0 0 0 0 0 0 0
dram_eff_bins: 0 0 0 0 0 0 0 0 0 0
mrqq: max=6 avg=0.000946485

========= L2 cache stats =========
L2_cache_bank[0]: Access = 2065, Miss = 8, Miss_rate = 0.004, Pending_hits = 24, Reservation_fails = 0
L2_cache_bank[1]: Access = 906, Miss = 8, Miss_rate = 0.009, Pending_hits = 24, Reservation_fails = 0
L2_cache_bank[2]: Access = 2261, Miss = 36, Miss_rate = 0.016, Pending_hits = 24, Reservation_fails = 0
L2_cache_bank[3]: Access = 906, Miss = 8, Miss_rate = 0.009, Pending_hits = 24, Reservation_fails = 0
L2_cache_bank[4]: Access = 2369, Miss = 33, Miss_rate = 0.014, Pending_hits = 24, Reservation_fails = 0
L2_cache_bank[5]: Access = 906, Miss = 8, Miss_rate = 0.009, Pending_hits = 24, Reservation_fails = 0
L2_cache_bank[6]: Access = 1346, Miss = 33, Miss_rate = 0.025, Pending_hits = 24, Reservation_fails = 0
L2_cache_bank[7]: Access = 906, Miss = 8, Miss_rate = 0.009, Pending_hits = 24, Reservation_fails = 0
L2_cache_bank[8]: Access = 1335, Miss = 16, Miss_rate = 0.012, Pending_hits = 24, Reservation_fails = 0
L2_cache_bank[9]: Access = 907, Miss = 8, Miss_rate = 0.009, Pending_hits = 24, Reservation_fails = 0
L2_cache_bank[10]: Access = 1365, Miss = 58, Miss_rate = 0.042, Pending_hits = 24, Reservation_fails = 0
L2_cache_bank[11]: Access = 908, Miss = 8, Miss_rate = 0.009, Pending_hits = 24, Reservation_fails = 0
L2_cache_bank[12]: Access = 1386, Miss = 83, Miss_rate = 0.060, Pending_hits = 24, Reservation_fails = 0
L2_cache_bank[13]: Access = 908, Miss = 8, Miss_rate = 0.009, Pending_hits = 24, Reservation_fails = 0
L2_cache_bank[14]: Access = 1389, Miss = 86, Miss_rate = 0.062, Pending_hits = 24, Reservation_fails = 0
L2_cache_bank[15]: Access = 907, Miss = 8, Miss_rate = 0.009, Pending_hits = 24, Reservation_fails = 0
L2_cache_bank[16]: Access = 1393, Miss = 89, Miss_rate = 0.064, Pending_hits = 24, Reservation_fails = 0
L2_cache_bank[17]: Access = 906, Miss = 8, Miss_rate = 0.009, Pending_hits = 24, Reservation_fails = 0
L2_cache_bank[18]: Access = 1409, Miss = 104, Miss_rate = 0.074, Pending_hits = 24, Reservation_fails = 0
L2_cache_bank[19]: Access = 906, Miss = 8, Miss_rate = 0.009, Pending_hits = 24, Reservation_fails = 0
L2_cache_bank[20]: Access = 1414, Miss = 108, Miss_rate = 0.076, Pending_hits = 24, Reservation_fails = 0
L2_cache_bank[21]: Access = 906, Miss = 8, Miss_rate = 0.009, Pending_hits = 24, Reservation_fails = 0
L2_cache_bank[22]: Access = 1413, Miss = 108, Miss_rate = 0.076, Pending_hits = 24, Reservation_fails = 0
L2_cache_bank[23]: Access = 906, Miss = 8, Miss_rate = 0.009, Pending_hits = 24, Reservation_fails = 0
L2_cache_bank[24]: Access = 1412, Miss = 108, Miss_rate = 0.076, Pending_hits = 24, Reservation_fails = 0
L2_cache_bank[25]: Access = 906, Miss = 8, Miss_rate = 0.009, Pending_hits = 24, Reservation_fails = 0
L2_cache_bank[26]: Access = 1411, Miss = 108, Miss_rate = 0.077, Pending_hits = 24, Reservation_fails = 0
L2_cache_bank[27]: Access = 907, Miss = 8, Miss_rate = 0.009, Pending_hits = 24, Reservation_fails = 0
L2_cache_bank[28]: Access = 1411, Miss = 108, Miss_rate = 0.077, Pending_hits = 24, Reservation_fails = 0
L2_cache_bank[29]: Access = 908, Miss = 8, Miss_rate = 0.009, Pending_hits = 24, Reservation_fails = 0
L2_cache_bank[30]: Access = 1411, Miss = 108, Miss_rate = 0.077, Pending_hits = 24, Reservation_fails = 0
L2_cache_bank[31]: Access = 908, Miss = 8, Miss_rate = 0.009, Pending_hits = 24, Reservation_fails = 0
L2_cache_bank[32]: Access = 1253, Miss = 81, Miss_rate = 0.065, Pending_hits = 24, Reservation_fails = 0
L2_cache_bank[33]: Access = 907, Miss = 8, Miss_rate = 0.009, Pending_hits = 24, Reservation_fails = 0
L2_cache_bank[34]: Access = 1055, Miss = 12, Miss_rate = 0.011, Pending_hits = 24, Reservation_fails = 0
L2_cache_bank[35]: Access = 906, Miss = 8, Miss_rate = 0.009, Pending_hits = 24, Reservation_fails = 0
L2_cache_bank[36]: Access = 909, Miss = 8, Miss_rate = 0.009, Pending_hits = 24, Reservation_fails = 0
L2_cache_bank[37]: Access = 906, Miss = 8, Miss_rate = 0.009, Pending_hits = 24, Reservation_fails = 0
L2_cache_bank[38]: Access = 908, Miss = 8, Miss_rate = 0.009, Pending_hits = 24, Reservation_fails = 0
L2_cache_bank[39]: Access = 906, Miss = 8, Miss_rate = 0.009, Pending_hits = 24, Reservation_fails = 0
L2_cache_bank[40]: Access = 908, Miss = 8, Miss_rate = 0.009, Pending_hits = 24, Reservation_fails = 0
L2_cache_bank[41]: Access = 906, Miss = 8, Miss_rate = 0.009, Pending_hits = 24, Reservation_fails = 0
L2_cache_bank[42]: Access = 907, Miss = 8, Miss_rate = 0.009, Pending_hits = 24, Reservation_fails = 0
L2_cache_bank[43]: Access = 906, Miss = 8, Miss_rate = 0.009, Pending_hits = 24, Reservation_fails = 0
L2_cache_bank[44]: Access = 906, Miss = 8, Miss_rate = 0.009, Pending_hits = 24, Reservation_fails = 0
L2_cache_bank[45]: Access = 907, Miss = 8, Miss_rate = 0.009, Pending_hits = 24, Reservation_fails = 0
L2_cache_bank[46]: Access = 906, Miss = 8, Miss_rate = 0.009, Pending_hits = 24, Reservation_fails = 0
L2_cache_bank[47]: Access = 908, Miss = 8, Miss_rate = 0.009, Pending_hits = 24, Reservation_fails = 0
L2_cache_bank[48]: Access = 906, Miss = 8, Miss_rate = 0.009, Pending_hits = 24, Reservation_fails = 0
L2_cache_bank[49]: Access = 908, Miss = 8, Miss_rate = 0.009, Pending_hits = 24, Reservation_fails = 0
L2_cache_bank[50]: Access = 906, Miss = 8, Miss_rate = 0.009, Pending_hits = 24, Reservation_fails = 0
L2_cache_bank[51]: Access = 907, Miss = 8, Miss_rate = 0.009, Pending_hits = 24, Reservation_fails = 0
L2_cache_bank[52]: Access = 906, Miss = 8, Miss_rate = 0.009, Pending_hits = 24, Reservation_fails = 0
L2_cache_bank[53]: Access = 906, Miss = 8, Miss_rate = 0.009, Pending_hits = 24, Reservation_fails = 0
L2_cache_bank[54]: Access = 907, Miss = 8, Miss_rate = 0.009, Pending_hits = 24, Reservation_fails = 0
L2_cache_bank[55]: Access = 906, Miss = 8, Miss_rate = 0.009, Pending_hits = 24, Reservation_fails = 0
L2_cache_bank[56]: Access = 908, Miss = 8, Miss_rate = 0.009, Pending_hits = 24, Reservation_fails = 0
L2_cache_bank[57]: Access = 906, Miss = 8, Miss_rate = 0.009, Pending_hits = 24, Reservation_fails = 0
L2_cache_bank[58]: Access = 908, Miss = 8, Miss_rate = 0.009, Pending_hits = 24, Reservation_fails = 0
L2_cache_bank[59]: Access = 906, Miss = 8, Miss_rate = 0.009, Pending_hits = 24, Reservation_fails = 0
L2_cache_bank[60]: Access = 907, Miss = 8, Miss_rate = 0.009, Pending_hits = 24, Reservation_fails = 0
L2_cache_bank[61]: Access = 906, Miss = 8, Miss_rate = 0.009, Pending_hits = 24, Reservation_fails = 0
L2_cache_bank[62]: Access = 906, Miss = 8, Miss_rate = 0.009, Pending_hits = 24, Reservation_fails = 0
L2_cache_bank[63]: Access = 907, Miss = 8, Miss_rate = 0.009, Pending_hits = 24, Reservation_fails = 0
L2_total_cache_accesses = 68807
L2_total_cache_misses = 1655
L2_total_cache_miss_rate = 0.0241
L2_total_cache_pending_hits = 1536
L2_total_cache_reservation_fails = 0
L2_total_cache_breakdown:
	L2_cache_stats_breakdown[GLOBAL_ACC_R][HIT] = 10240
	L2_cache_stats_breakdown[GLOBAL_ACC_R][HIT_RESERVED] = 1536
	L2_cache_stats_breakdown[GLOBAL_ACC_R][MISS] = 128
	L2_cache_stats_breakdown[GLOBAL_ACC_R][RESERVATION_FAIL] = 0
	L2_cache_stats_breakdown[GLOBAL_ACC_R][SECTOR_MISS] = 384
	L2_cache_stats_breakdown[LOCAL_ACC_R][HIT] = 0
	L2_cache_stats_breakdown[LOCAL_ACC_R][HIT_RESERVED] = 0
	L2_cache_stats_breakdown[LOCAL_ACC_R][MISS] = 0
	L2_cache_stats_breakdown[LOCAL_ACC_R][RESERVATION_FAIL] = 0
	L2_cache_stats_breakdown[LOCAL_ACC_R][SECTOR_MISS] = 0
	L2_cache_stats_breakdown[CONST_ACC_R][HIT] = 0
	L2_cache_stats_breakdown[CONST_ACC_R][HIT_RESERVED] = 0
	L2_cache_stats_breakdown[CONST_ACC_R][MISS] = 0
	L2_cache_stats_breakdown[CONST_ACC_R][RESERVATION_FAIL] = 0
	L2_cache_stats_breakdown[CONST_ACC_R][SECTOR_MISS] = 0
	L2_cache_stats_breakdown[TEXTURE_ACC_R][HIT] = 0
	L2_cache_stats_breakdown[TEXTURE_ACC_R][HIT_RESERVED] = 0
	L2_cache_stats_breakdown[TEXTURE_ACC_R][MISS] = 0
	L2_cache_stats_breakdown[TEXTURE_ACC_R][RESERVATION_FAIL] = 0
	L2_cache_stats_breakdown[TEXTURE_ACC_R][SECTOR_MISS] = 0
	L2_cache_stats_breakdown[GLOBAL_ACC_W][HIT] = 55376
	L2_cache_stats_breakdown[GLOBAL_ACC_W][HIT_RESERVED] = 0
	L2_cache_stats_breakdown[GLOBAL_ACC_W][MISS] = 33
	L2_cache_stats_breakdown[GLOBAL_ACC_W][RESERVATION_FAIL] = 0
	L2_cache_stats_breakdown[GLOBAL_ACC_W][SECTOR_MISS] = 1110
	L2_cache_stats_breakdown[LOCAL_ACC_W][HIT] = 0
	L2_cache_stats_breakdown[LOCAL_ACC_W][HIT_RESERVED] = 0
	L2_cache_stats_breakdown[LOCAL_ACC_W][MISS] = 0
	L2_cache_stats_breakdown[LOCAL_ACC_W][RESERVATION_FAIL] = 0
	L2_cache_stats_breakdown[LOCAL_ACC_W][SECTOR_MISS] = 0
	L2_cache_stats_breakdown[L1_WRBK_ACC][HIT] = 0
	L2_cache_stats_breakdown[L1_WRBK_ACC][HIT_RESERVED] = 0
	L2_cache_stats_breakdown[L1_WRBK_ACC][MISS] = 0
	L2_cache_stats_breakdown[L1_WRBK_ACC][RESERVATION_FAIL] = 0
	L2_cache_stats_breakdown[L1_WRBK_ACC][SECTOR_MISS] = 0
	L2_cache_stats_breakdown[L2_WRBK_ACC][HIT] = 0
	L2_cache_stats_breakdown[L2_WRBK_ACC][HIT_RESERVED] = 0
	L2_cache_stats_breakdown[L2_WRBK_ACC][MISS] = 0
	L2_cache_stats_breakdown[L2_WRBK_ACC][RESERVATION_FAIL] = 0
	L2_cache_stats_breakdown[L2_WRBK_ACC][SECTOR_MISS] = 0
	L2_cache_stats_breakdown[INST_ACC_R][HIT] = 0
	L2_cache_stats_breakdown[INST_ACC_R][HIT_RESERVED] = 0
	L2_cache_stats_breakdown[INST_ACC_R][MISS] = 0
	L2_cache_stats_breakdown[INST_ACC_R][RESERVATION_FAIL] = 0
	L2_cache_stats_breakdown[INST_ACC_R][SECTOR_MISS] = 0
	L2_cache_stats_breakdown[L1_WR_ALLOC_R][HIT] = 0
	L2_cache_stats_breakdown[L1_WR_ALLOC_R][HIT_RESERVED] = 0
	L2_cache_stats_breakdown[L1_WR_ALLOC_R][MISS] = 0
	L2_cache_stats_breakdown[L1_WR_ALLOC_R][RESERVATION_FAIL] = 0
	L2_cache_stats_breakdown[L1_WR_ALLOC_R][SECTOR_MISS] = 0
	L2_cache_stats_breakdown[L2_WR_ALLOC_R][HIT] = 0
	L2_cache_stats_breakdown[L2_WR_ALLOC_R][HIT_RESERVED] = 0
	L2_cache_stats_breakdown[L2_WR_ALLOC_R][MISS] = 0
	L2_cache_stats_breakdown[L2_WR_ALLOC_R][RESERVATION_FAIL] = 0
	L2_cache_stats_breakdown[L2_WR_ALLOC_R][SECTOR_MISS] = 0
	L2_cache_stats_breakdown[GLOBAL_ACC_R][TOTAL_ACCESS] = 12288
	L2_cache_stats_breakdown[GLOBAL_ACC_W][TOTAL_ACCESS] = 56519
L2_total_cache_reservation_fail_breakdown:
L2_cache_data_port_util = 0.000
L2_cache_fill_port_util = 0.000

icnt_total_pkts_mem_to_simt=68807
icnt_total_pkts_simt_to_mem=68807
LD_mem_lat_dist  0 0 0 0 0 0 0 0 0 0 0 0 0 0 0 0 0 0 0 0 0 0 0 0 0 0 0
ST_mem_lat_dist  0 0 0 0 0 0 0 0 0 0 0 0 0 0 0 0 0 0 0 0 0 0 0 0 0 0 0
----------------------------Interconnect-DETAILS--------------------------------
Req_Network_injected_packets_num = 68807
Req_Network_cycles = 4581402
Req_Network_injected_packets_per_cycle =       0.0150 
Req_Network_conflicts_per_cycle =       0.0051
Req_Network_conflicts_per_cycle_util =       0.9554
Req_Bank_Level_Parallism =       2.8158
Req_Network_in_buffer_full_per_cycle =       0.0000
Req_Network_in_buffer_avg_util =       0.0054
Req_Network_out_buffer_full_per_cycle =       0.0000
Req_Network_out_buffer_avg_util =       0.0002

Reply_Network_injected_packets_num = 68807
Reply_Network_cycles = 4581402
Reply_Network_injected_packets_per_cycle =        0.0150
Reply_Network_conflicts_per_cycle =        0.1281
Reply_Network_conflicts_per_cycle_util =      23.6146
Reply_Bank_Level_Parallism =       2.7676
Reply_Network_in_buffer_full_per_cycle =       0.0000
Reply_Network_in_buffer_avg_util =       0.0163
Reply_Network_out_buffer_full_per_cycle =       0.0000
Reply_Network_out_buffer_avg_util =       0.0002
----------------------------END-of-Interconnect-DETAILS-------------------------


gpgpu_simulation_time = 0 days, 3 hrs, 47 min, 23 sec (13643 sec)
gpgpu_simulation_rate = 60858 (inst/sec)
gpgpu_simulation_rate = 335 (cycle/sec)
gpgpu_silicon_slowdown = 3379104x
GPGPU-Sim: detected inactive GPU simulation thread
GPGPU-Sim: *** exit detected ***
